AquaCrop 7.1 (August 2023) - Output created on (date) : 19-08-2023   at (time) : 13:48:24

    RunNr     Day1   Month1    Year1     Rain      ETo       GD     CO2      Irri   Infilt   Runoff    Drain   Upflow        E     E/Ex       Tr      TrW   Tr/Trx    SaltIn   SaltOut    SaltUp  SaltProf     Cycle   SaltStr  FertStr  WeedStr  TempStr   ExpStr   StoStr  BioMass  Brelative   HI    Y(dry)  Y(fresh)    WPet      Bin     Bout     DayN   MonthN    YearN
                                           mm       mm  degC.day    ppm        mm       mm       mm       mm       mm       mm        %       mm       mm        %    ton/ha    ton/ha    ton/ha    ton/ha      days       %        %        %        %        %        %    ton/ha        %       %    ton/ha   ton/ha    kg/m3   ton/ha   ton/ha
   Tot(1)        1        1     2011   3076.1    475.5    856.2   391.85      0.0   2803.9    272.2   2497.5      0.0    173.3       86    127.2    127.2      100     0.000     0.000     0.000     0.000      267        0       30        0       72        0        0     8.099       69     85.0    6.884   -9.900     2.57    0.000    0.000       31       12     2011  0_1.PRM
   Tot(2)        1        1     2012   2804.1    494.4    689.3   394.06      0.0   2540.4    263.7   2184.4      0.0    201.2       85    115.9    115.9      100     0.000     0.000     0.000     0.000      267        0       30        0       76        0        0     7.176       68     85.0    6.100   -9.900     2.13    0.000    0.000       31       12     2012  0_1.PRM
   Tot(3)        1        1     2013   2440.7    488.5    841.3   396.74      0.4   2233.1    207.6   1916.9      0.0    191.1       85    146.0    146.0      100     0.000     0.000     0.000     0.000      267        0       30        0       71        0        0     8.756       69     85.0    7.443   -9.900     2.44    0.000    0.000       31       12     2013  0_1.PRM
   Tot(4)        1        1     2014   2523.4    574.1   1012.9   398.81      3.4   2296.7    226.7   1936.4      0.0    201.8       81    178.9    178.9      100     0.000     0.000     0.000     0.000      267        0       30        0       67        0        0     9.838       70     85.0    8.362   -9.900     2.43    0.000    0.000       31       12     2014  0_1.PRM
   Tot(5)        1        1     2015   3072.4    489.4    719.4   401.01      0.0   2799.5    272.9   2470.8      0.0    211.8       93    111.3    111.3      100     0.000     0.000     0.000     0.000      267        0       30        0       77        0        0     6.708       71     85.0    5.702   -9.900     1.98    0.000    0.000       31       12     2015  0_1.PRM
   Tot(6)        1        1     2016   2203.9    490.8    837.8   404.41      0.0   2042.3    161.6   1699.5      0.0    193.5       82    128.4    128.4      100     0.000     0.000     0.000     0.000      267        0       30        0       70        0        0     8.586       69     85.0    7.298   -9.900     2.51    0.000    0.000       31       12     2016  0_1.PRM
