AquaCrop 7.1 (August 2023) - Output created on (date) : 19-08-2023   at (time) : 13:48:24

   Run:   1
   Day Month  Year   DAP Stage   WC(1.20)   Rain     Irri   Surf   Infilt   RO    Drain       CR    Zgwt       Ex       E     E/Ex     Trx       Tr  Tr/Trx    ETx      ET  ET/ETx      GD       Z     StExp  StSto  StSen StSalt StWeed   CC      CCw     StTr  Kc(Tr)     Trx       Tr      TrW  Tr/Trx   WP    Biomass     HI    Y(dry)  Y(fresh)  Brelative    WPet      Bin     Bout  WC(1.20) Wr(1.00)     Z       Wr    Wr(SAT)    Wr(FC)   Wr(exp)   Wr(sto)   Wr(sen)   Wr(PWP)    SaltIn    SaltOut   SaltUp   Salt(1.20)  SaltZ     Z       ECe    ECsw   StSalt  Zgwt    ECgw       WC01       WC 2       WC 3       WC 4       WC 5       WC 6       WC 7       WC 8       WC 9       WC10       WC11       WC12      ECe01      ECe 2      ECe 3      ECe 4      ECe 5      ECe 6      ECe 7      ECe 8      ECe 9      ECe10      ECe11      ECe12     Rain       ETo      Tmin      Tavg      Tmax      CO2
                                      mm      mm       mm     mm     mm     mm       mm       mm      m        mm       mm     %        mm       mm    %        mm      mm       %  degC-day     m       %      %      %      %      %      %       %       %       -        mm       mm       mm    %     g/m2    ton/ha      %    ton/ha   ton/ha       %       kg/m3   ton/ha   ton/ha      mm       mm       m       mm        mm        mm        mm        mm        mm         mm    ton/ha    ton/ha    ton/ha    ton/ha    ton/ha     m      dS/m    dS/m      %     m      dS/m       0.05       0.15       0.25       0.35       0.45       0.55       0.65       0.75       0.85       0.95       1.05       1.15       0.05       0.15       0.25       0.35       0.45       0.55       0.65       0.75       0.85       0.95       1.05       1.15       mm        mm     degC      degC      degC       ppm
     1     1  2011     1     2     139.6     0.4      0.0    0.0    0.4    0.0      0.0      0.0   -9.90      0.5      0.5    100      0.0      0.0   100      0.5     0.5     100      0.0    0.30     -9     -9      0      0      0    10.0    10.0    100    -9.00      0.0      0.0      0.0   100     0.0     0.000    -9.9    0.000   -9.900      -9        0.00    0.000    0.000     139.6    116.2    0.30    34.3     124.7      34.5      23.2      17.0       7.0       6.8    0.000     0.000     0.000     0.000     0.000    0.30     0.00    0.00      0   -9.90   -9.00       11.6       11.7       11.7       11.7       11.7       11.7       11.7       11.7       11.7       11.7       11.7       11.7        0.0        0.0        0.0        0.0        0.0        0.0        0.0        0.0        0.0        0.0        0.0        0.0      0.4       0.6      -0.0       2.4       4.7    391.85
     2     1  2011     2     2     139.6     0.0      0.0    0.0    0.0    0.0      0.0      0.0   -9.90      0.1      0.1     97      0.0      0.0   100      0.1     0.1      97      0.0    0.30     -9     -9      0      0      0    10.0    10.0    100    -9.00      0.0      0.0      0.0   100     0.0     0.000    -9.9    0.000   -9.900      -9        0.00    0.000    0.000     139.6    116.2    0.30    34.3     124.7      34.5      22.7      16.6       6.9       6.8    0.000     0.000     0.000     0.000     0.000    0.30     0.00    0.00      0   -9.90   -9.00       11.5       11.7       11.7       11.7       11.7       11.7       11.7       11.7       11.7       11.7       11.7       11.7        0.0        0.0        0.0        0.0        0.0        0.0        0.0        0.0        0.0        0.0        0.0        0.0      0.0       0.1      -7.9      -4.1      -0.3    391.85
     3     1  2011     3     2     143.8     4.5      0.0    0.0    4.5    0.0      0.0      0.0   -9.90      0.3      0.3    100      0.0      0.0   100      0.3     0.3     100      0.0    0.30     -9     -9      0      0      0    10.0    10.0    100    -9.00      0.0      0.0      0.0   100     0.0     0.000    -9.9    0.000   -9.900      -9        0.00    0.000    0.000     143.8    120.4    0.30    38.5     124.7      34.5      22.9      16.8       7.0       6.8    0.000     0.000     0.000     0.000     0.000    0.30     0.00    0.00      0   -9.90   -9.00       15.8       11.7       11.7       11.7       11.7       11.7       11.7       11.7       11.7       11.7       11.7       11.7        0.0        0.0        0.0        0.0        0.0        0.0        0.0        0.0        0.0        0.0        0.0        0.0      4.5       0.3      -7.6      -3.0       1.5    391.85
     4     1  2011     4     2     147.8     6.0      0.0    0.0    6.0    0.0      1.7      0.0   -9.90      0.3      0.3    100      0.0      0.0   100      0.3     0.3     100      0.0    0.32     -9     -9      0      0      0    10.0    10.0    100    -9.00      0.0      0.0      0.0   100     0.0     0.000    -9.9    0.000   -9.900      -9        0.00    0.000    0.000     147.8    124.3    0.32    43.5     132.0      36.5      24.3      17.8       7.4       7.2    0.000     0.000     0.000     0.000     0.000    0.32     0.00    0.00      0   -9.90   -9.00       18.0       12.2       11.9       12.0       11.9       11.8       11.8       11.8       11.8       11.8       11.8       11.8        0.0        0.0        0.0        0.0        0.0        0.0        0.0        0.0        0.0        0.0        0.0        0.0      6.0       0.3       0.9       1.8       2.6    391.85
     5     1  2011     5     2     157.6    15.0      0.0    0.0   14.2    0.8      4.0      0.0   -9.90      0.5      0.5    100      0.0      0.0   100      0.5     0.5     100      0.0    0.33     -9     -9      0      0      0    10.0    10.0    100    -9.00      0.0      0.0      0.0   100     0.0     0.000    -9.9    0.000   -9.900      -9        0.00    0.000    0.000     157.6    133.9    0.33    54.3     139.3      38.5      25.9      19.0       7.9       7.6    0.000     0.000     0.000     0.000     0.000    0.33     0.00    0.00      0   -9.90   -9.00       26.5       12.4       12.1       12.2       12.1       12.0       11.9       11.9       11.9       11.8       11.8       11.8        0.0        0.0        0.0        0.0        0.0        0.0        0.0        0.0        0.0        0.0        0.0        0.0     15.0       0.5       1.4       2.2       3.0    391.85
     6     1  2011     6     2     163.4    17.2      0.0    0.0   16.1    1.1      9.7      0.0   -9.90      0.5      0.5    100      0.0      0.0   100      0.5     0.5     100      0.0    0.35     -9     -9      0      0      0    10.0    10.0    100    -9.00      0.0      0.0      0.0   100     0.0     0.000    -9.9    0.000   -9.900      -9        0.00    0.000    0.000     163.4    139.4    0.35    59.6     146.1      40.4      27.2      20.0       8.3       8.0    0.000     0.000     0.000     0.000     0.000    0.35     0.00    0.00      0   -9.90   -9.00       28.6       12.9       12.5       12.9       12.6       12.4       12.2       12.2       12.1       12.0       12.0       12.0        0.0        0.0        0.0        0.0        0.0        0.0        0.0        0.0        0.0        0.0        0.0        0.0     17.2       0.6      -0.6       0.9       2.4    391.85
     7     1  2011     7     2     155.3     6.3      0.0    0.0    6.3    0.0     14.2      0.0   -9.90      0.2      0.2    100      0.0      0.0   100      0.2     0.2     100      0.0    0.37     -9     -9      0      0      0    10.0    10.0    100    -9.00      0.0      0.0      0.0   100     0.0     0.000    -9.9    0.000   -9.900      -9        0.00    0.000    0.000     155.3    131.1    0.37    52.1     152.5      42.2      28.0      20.5       8.6       8.4    0.000     0.000     0.000     0.000     0.000    0.37     0.00    0.00      0   -9.90   -9.00       18.7       12.9       12.6       13.1       12.8       12.6       12.4       12.3       12.2       12.2       12.1       12.1        0.0        0.0        0.0        0.0        0.0        0.0        0.0        0.0        0.0        0.0        0.0        0.0      6.3       0.2      -2.4      -1.7      -1.0    391.85
     8     1  2011     8     2     157.1    12.5      0.0    0.0   12.1    0.4      9.7      0.0   -9.90      0.5      0.5    100      0.0      0.0   100      0.5     0.5     100      0.0    0.38     -9     -9      0      0      0    10.0    10.0    100    -9.00      0.0      0.0      0.0   100     0.0     0.000    -9.9    0.000   -9.900      -9        0.00    0.000    0.000     157.1    133.2    0.38    58.0     158.7      43.9      29.6      21.8       9.0       8.8    0.000     0.000     0.000     0.000     0.000    0.38     0.00    0.00      0   -9.90   -9.00       24.2       12.5       12.2       12.4       12.3       12.2       12.1       12.1       12.0       12.0       12.0       12.0        0.0        0.0        0.0        0.0        0.0        0.0        0.0        0.0        0.0        0.0        0.0        0.0     12.5       0.6      -2.9      -0.4       2.0    391.85
     9     1  2011     9     2     172.7    30.9      0.0    0.0   26.1    4.8     10.0      0.0   -9.90      0.5      0.5    100      0.0      0.0   100      0.5     0.5     100      0.0    0.39     -9     -9      0      0      0    10.0    10.0    100    -9.00      0.0      0.0      0.0   100     0.0     0.000    -9.9    0.000   -9.900      -9        0.00    0.000    0.000     172.7    148.7    0.39    74.4     164.6      45.5      30.6      22.5       9.4       9.1    0.000     0.000     0.000     0.000     0.000    0.39     0.00    0.00      0   -9.90   -9.00       38.3       12.8       12.4       12.7       12.5       12.4       12.3       12.2       12.1       12.1       12.0       12.0        0.0        0.0        0.0        0.0        0.0        0.0        0.0        0.0        0.0        0.0        0.0        0.0     30.9       0.5       2.1       3.0       3.8    391.85
    10     1  2011    10     2     180.3    35.9      0.0    0.0   29.2    6.7     21.3      0.0   -9.90      0.4      0.4    100      0.0      0.0   100      0.4     0.4     100      0.0    0.41     -9     -9      0      0      0    10.0    10.0    100    -9.00      0.0      0.0      0.0   100     0.0     0.000    -9.9    0.000   -9.900      -9        0.00    0.000    0.000     180.3    155.7    0.41    80.0     170.3      47.1      31.5      23.1       9.7       9.5    0.000     0.000     0.000     0.000     0.000    0.41     0.00    0.00      0   -9.90   -9.00       41.2       12.3       12.9       13.8       13.3       13.0       12.8       12.6       12.5       12.4       12.3       12.3        0.0        0.0        0.0        0.0        0.0        0.0        0.0        0.0        0.0        0.0        0.0        0.0     35.9       0.4       1.6       2.4       3.2    391.85
    11     1  2011    11     2     181.8    36.0      0.0    0.0   29.3    6.7     27.5      0.0   -9.90      0.3      0.3    100      0.0      0.0   100      0.3     0.3     100      0.0    0.42     -9     -9      0      0      0    10.0    10.0    100    -9.00      0.0      0.0      0.0   100     0.0     0.000    -9.9    0.000   -9.900      -9        0.00    0.000    0.000     181.8    156.9    0.42    81.7     175.7      48.6      32.4      23.8      10.0       9.8    0.000     0.000     0.000     0.000     0.000    0.42     0.00    0.00      0   -9.90   -9.00       41.4       11.9       12.9       14.0       13.6       13.2       13.0       12.8       12.7       12.6       12.5       12.4        0.0        0.0        0.0        0.0        0.0        0.0        0.0        0.0        0.0        0.0        0.0        0.0     36.0       0.3       0.6       1.8       2.9    391.85
    12     1  2011    12     2     153.0     0.1      0.0    0.0    0.1    0.0     28.9      0.0   -9.90      0.0      0.0    100      0.0      0.0   100      0.0     0.0     100      0.0    0.43     -9     -9      0      0      0    10.0    10.0    100    -9.00      0.0      0.0      0.0   100     0.0     0.000    -9.9    0.000   -9.900      -9        0.00    0.000    0.000     153.0    128.0    0.43    54.4     181.1      50.0      33.0      24.2      10.3      10.1    0.000     0.000     0.000     0.000     0.000    0.43     0.00    0.00      0   -9.90   -9.00       11.8       11.8       12.9       14.0       13.6       13.3       13.0       12.9       12.7       12.6       12.5       12.5        0.0        0.0        0.0        0.0        0.0        0.0        0.0        0.0        0.0        0.0        0.0        0.0      0.1       0.0      -5.5      -2.5       0.6    391.85
    13     1  2011    13     2     154.3    11.9      0.0    0.0   11.5    0.4     10.0      0.0   -9.90      0.3      0.3    100      0.0      0.0   100      0.3     0.3     100      0.0    0.45     -9     -9      0      0      0    10.0    10.0    100    -9.00      0.0      0.0      0.0   100     0.0     0.000    -9.9    0.000   -9.900      -9        0.00    0.000    0.000     154.3    130.4    0.45    63.7     186.3      51.5      34.3      25.2      10.7      10.4    0.000     0.000     0.000     0.000     0.000    0.45     0.00    0.00      0   -9.90   -9.00       23.2       11.7       11.9       12.2       12.1       12.1       12.0       12.0       12.0       12.0       12.0       12.0        0.0        0.0        0.0        0.0        0.0        0.0        0.0        0.0        0.0        0.0        0.0        0.0     11.9       0.3      -5.0      -1.6       1.9    391.85
    14     1  2011    14     2     152.2     6.3      0.0    0.0    6.3    0.0      8.2      0.0   -9.90      0.2      0.2    100      0.0      0.0   100      0.2     0.2     100      0.0    0.46     -9     -9      0      0      0    10.0    10.0    100    -9.00      0.0      0.0      0.0   100     0.0     0.000    -9.9    0.000   -9.900      -9        0.00    0.000    0.000     152.2    128.3    0.46    62.7     191.3      52.9      35.1      25.8      11.0      10.7    0.000     0.000     0.000     0.000     0.000    0.46     0.00    0.00      0   -9.90   -9.00       18.7       12.7       12.4       12.5       12.3       12.2       12.1       12.0       12.0       12.0       12.0       11.9        0.0        0.0        0.0        0.0        0.0        0.0        0.0        0.0        0.0        0.0        0.0        0.0      6.3       0.2       0.9       1.8       2.7    391.85
    15     1  2011    15     2     160.6    17.4      0.0    0.0   16.2    1.2      7.2      0.0   -9.90      0.6      0.6    100      0.0      0.0   100      0.6     0.6     100      0.0    0.47     -9     -9      0      0      0    10.0    10.0    100    -9.00      0.0      0.0      0.0   100     0.0     0.000    -9.9    0.000   -9.900      -9        0.00    0.000    0.000     160.6    136.8    0.47    72.9     196.2      54.2      36.8      27.1      11.3      11.0    0.000     0.000     0.000     0.000     0.000    0.47     0.00    0.00      0   -9.90   -9.00       28.4       12.5       12.2       12.3       12.2       12.1       12.1       12.0       12.0       11.9       11.9       11.9        0.0        0.0        0.0        0.0        0.0        0.0        0.0        0.0        0.0        0.0        0.0        0.0     17.4       0.7       1.5       2.6       3.7    391.85
    16     1  2011    16     2     180.3    40.8      0.0    0.0   32.1    8.7     12.0      0.0   -9.90      0.4      0.4    100      0.0      0.0   100      0.4     0.4     100      0.0    0.48     -9     -9      0      0      0    10.0    10.0    100    -9.00      0.0      0.0      0.0   100     0.0     0.000    -9.9    0.000   -9.900      -9        0.00    0.000    0.000     180.3    156.2    0.48    92.0     201.1      55.6      37.2      27.4      11.6      11.3    0.000     0.000     0.000     0.000     0.000    0.48     0.00    0.00      0   -9.90   -9.00       41.9       15.5       12.6       13.0       12.7       12.6       12.4       12.3       12.2       12.2       12.1       12.1        0.0        0.0        0.0        0.0        0.0        0.0        0.0        0.0        0.0        0.0        0.0        0.0     40.8       0.4       3.9       5.0       6.2    391.85
    17     1  2011    17     2     178.2    29.6      0.0    0.0   25.2    4.4     27.1      0.0   -9.90      0.2      0.2    100      0.0      0.0   100      0.2     0.2     100      0.0    0.49     -9     -9      0      0      0    10.0    10.0    100    -9.00      0.0      0.0      0.0   100     0.0     0.000    -9.9    0.000   -9.900      -9        0.00    0.000    0.000     178.2    153.3    0.49    87.5     205.8      56.9      37.8      27.8      11.8      11.6    0.000     0.000     0.000     0.000     0.000    0.49     0.00    0.00      0   -9.90   -9.00       37.2       11.8       12.8       14.2       13.7       13.3       13.1       12.9       12.7       12.6       12.5       12.4        0.0        0.0        0.0        0.0        0.0        0.0        0.0        0.0        0.0        0.0        0.0        0.0     29.6       0.2       2.5       3.6       4.8    391.85
    18     1  2011    18     2     168.2    16.7      0.0    0.0   15.6    1.1     25.6      0.0   -9.90      0.0      0.0    100      0.0      0.0   100      0.0     0.0     100      0.0    0.50     -9     -9      0      0      0    10.0    10.0    100    -9.00      0.0      0.0      0.0   100     0.0     0.000    -9.9    0.000   -9.900      -9        0.00    0.000    0.000     168.2    143.4    0.50    79.9     210.4      58.1      38.3      28.1      12.1      11.8    0.000     0.000     0.000     0.000     0.000    0.50     0.00    0.00      0   -9.90   -9.00       28.3       12.4       12.8       13.7       13.3       13.1       12.9       12.7       12.6       12.5       12.4       12.4        0.0        0.0        0.0        0.0        0.0        0.0        0.0        0.0        0.0        0.0        0.0        0.0     16.7       0.0       0.6       1.7       2.8    391.85
    19     1  2011    19     2     150.1     0.3      0.0    0.0    0.3    0.0     18.4      0.0   -9.90      0.0      0.0    100      0.0      0.0   100      0.0     0.0     100      0.0    0.51     -9     -9      0      0      0    10.0    10.0    100    -9.00      0.0      0.0      0.0   100     0.0     0.000    -9.9    0.000   -9.900      -9        0.00    0.000    0.000     150.1    125.7    0.51    65.2     215.0      59.4      39.2      28.7      12.4      12.1    0.000     0.000     0.000     0.000     0.000    0.51     0.00    0.00      0   -9.90   -9.00       12.9       12.9       12.6       13.1       12.8       12.6       12.5       12.4       12.3       12.3       12.2       12.2        0.0        0.0        0.0        0.0        0.0        0.0        0.0        0.0        0.0        0.0        0.0        0.0      0.3       0.0      -4.6      -1.8       0.9    391.85
    20     1  2011    20     2     142.5     0.0      0.0    0.0    0.0    0.0      7.6      0.0   -9.90      0.1      0.1    100      0.0      0.0   100      0.1     0.1     100      0.0    0.52     -9     -9      0      0      0    10.0    10.0    100    -9.00      0.0      0.0      0.0   100     0.0     0.000    -9.9    0.000   -9.900      -9        0.00    0.000    0.000     142.5    118.6    0.52    61.7     219.4      60.6      40.2      29.5      12.7      12.4    0.000     0.000     0.000     0.000     0.000    0.52     0.00    0.00      0   -9.90   -9.00       11.8       11.9       11.9       12.0       12.0       12.0       12.0       12.0       11.9       11.9       11.9       11.9        0.0        0.0        0.0        0.0        0.0        0.0        0.0        0.0        0.0        0.0        0.0        0.0      0.0       0.1      -7.3      -3.9      -0.5    391.85
    21     1  2011    21     2     150.3    10.3      0.0    0.0   10.1    0.2      2.1      0.0   -9.90      0.2      0.2    100      0.0      0.0   100      0.2     0.2     100      0.0    0.53     -9     -9      0      0      0    10.0    10.0    100    -9.00      0.0      0.0      0.0   100     0.0     0.000    -9.9    0.000   -9.900      -9        0.00    0.000    0.000     150.3    126.8    0.53    72.0     223.8      61.8      41.1      30.2      12.9      12.6    0.000     0.000     0.000     0.000     0.000    0.53     0.00    0.00      0   -9.90   -9.00       21.8       11.7       11.7       11.8       11.8       11.8       11.8       11.8       11.8       11.8       11.8       11.8        0.0        0.0        0.0        0.0        0.0        0.0        0.0        0.0        0.0        0.0        0.0        0.0     10.3       0.2      -2.1       0.8       3.6    391.85
    22     1  2011    22     2     148.2     3.3      0.0    0.0    3.3    0.0      5.2      0.0   -9.90      0.2      0.2    100      0.0      0.0   100      0.2     0.2     100      0.0    0.54     -9     -9      0      0      0    10.0    10.0    100    -9.00      0.0      0.0      0.0   100     0.0     0.000    -9.9    0.000   -9.900      -9        0.00    0.000    0.000     148.2    124.5    0.54    69.8     228.2      63.0      41.9      30.8      13.2      12.9    0.000     0.000     0.000     0.000     0.000    0.54     0.00    0.00      0   -9.90   -9.00       15.4       12.7       12.3       12.4       12.3       12.2       12.1       12.0       11.9       11.9       11.9       11.9        0.0        0.0        0.0        0.0        0.0        0.0        0.0        0.0        0.0        0.0        0.0        0.0      3.3       0.2       0.8       2.8       4.7    391.85
    23     1  2011    23     2     143.0     0.1      0.0    0.0    0.1    0.0      5.2      0.0   -9.90      0.1      0.1    100      0.0      0.0   100      0.1     0.1     100      0.0    0.55     -9     -9      0      0      0    10.0    10.0    100    -9.00      0.0      0.0      0.0   100     0.0     0.000    -9.9    0.000   -9.900      -9        0.00    0.000    0.000     143.0    119.3    0.55    66.2     232.4      64.2      42.5      31.3      13.4      13.1    0.000     0.000     0.000     0.000     0.000    0.55     0.00    0.00      0   -9.90   -9.00       12.1       12.2       12.0       12.1       12.0       12.0       11.9       11.9       11.9       11.9       11.9       11.8        0.0        0.0        0.0        0.0        0.0        0.0        0.0        0.0        0.0        0.0        0.0        0.0      0.1       0.1       2.5       3.5       4.6    391.85
    24     1  2011    24     2     150.6    10.3      0.0    0.0   10.1    0.2      2.3      0.0   -9.90      0.2      0.2    100      0.0      0.0   100      0.2     0.2     100      0.0    0.56     -9     -9      0      0      0    10.0    10.0    100    -9.00      0.0      0.0      0.0   100     0.0     0.000    -9.9    0.000   -9.900      -9        0.00    0.000    0.000     150.6    127.1    0.56    75.7     236.6      65.4      43.5      32.0      13.7      13.4    0.000     0.000     0.000     0.000     0.000    0.56     0.00    0.00      0   -9.90   -9.00       21.8       11.8       11.8       11.8       11.8       11.8       11.8       11.8       11.8       11.8       11.8       11.8        0.0        0.0        0.0        0.0        0.0        0.0        0.0        0.0        0.0        0.0        0.0        0.0     10.3       0.2       2.4       3.4       4.4    391.85
    25     1  2011    25     2     145.3     0.0      0.0    0.0    0.0    0.0      5.3      0.0   -9.90      0.0      0.0    100      0.0      0.0   100      0.0     0.0     100      0.0    0.57     -9     -9      0      0      0    10.0    10.0    100    -9.00      0.0      0.0      0.0   100     0.0     0.000    -9.9    0.000   -9.900      -9        0.00    0.000    0.000     145.3    121.6    0.57    70.6     240.8      66.5      43.9      32.2      13.9      13.6    0.000     0.000     0.000     0.000     0.000    0.57     0.00    0.00      0   -9.90   -9.00       12.7       12.7       12.3       12.4       12.2       12.1       12.0       12.0       11.9       11.9       11.9       11.9        0.0        0.0        0.0        0.0        0.0        0.0        0.0        0.0        0.0        0.0        0.0        0.0      0.0       0.0      -5.2      -1.6       2.0    391.85
    26     1  2011    26     2     141.9     0.5      0.0    0.0    0.5    0.0      3.8      0.0   -9.90      0.1      0.1    100      0.0      0.0   100      0.1     0.1     100      0.0    0.58     -9     -9      0      0      0    10.0    10.0    100    -9.00      0.0      0.0      0.0   100     0.0     0.000    -9.9    0.000   -9.900      -9        0.00    0.000    0.000     141.9    118.3    0.58    69.0     244.9      67.6      44.8      33.0      14.2      13.9    0.000     0.000     0.000     0.000     0.000    0.58     0.00    0.00      0   -9.90   -9.00       12.2       11.8       11.8       11.9       11.9       11.9       11.9       11.8       11.8       11.8       11.8       11.8        0.0        0.0        0.0        0.0        0.0        0.0        0.0        0.0        0.0        0.0        0.0        0.0      0.5       0.1      -5.8      -3.5      -1.1    391.85
    27     1  2011    27     2     140.4     0.0      0.0    0.0    0.0    0.0      1.5      0.0   -9.90      0.0      0.0    100      0.0      0.0   100      0.0     0.0     100      0.0    0.59     -9     -9      0      0      0    10.0    10.0    100    -9.00      0.0      0.0      0.0   100     0.0     0.000    -9.9    0.000   -9.900      -9        0.00    0.000    0.000     140.4    116.9    0.59    69.1     248.9      68.8      45.4      33.3      14.4      14.1    0.000     0.000     0.000     0.000     0.000    0.59     0.00    0.00      0   -9.90   -9.00       11.8       11.8       11.7       11.8       11.8       11.8       11.8       11.8       11.7       11.7       11.7       11.7        0.0        0.0        0.0        0.0        0.0        0.0        0.0        0.0        0.0        0.0        0.0        0.0      0.0       0.0      -8.3      -5.8      -3.3    391.85
    28     1  2011    28     2     141.1     1.3      0.0    0.0    1.3    0.0      0.5      0.0   -9.90      0.2      0.2    100      0.0      0.0   100      0.2     0.2     100      0.0    0.60     -9     -9      0      0      0    10.0    10.0    100    -9.00      0.0      0.0      0.0   100     0.0     0.000    -9.9    0.000   -9.900      -9        0.00    0.000    0.000     141.1    117.6    0.60    71.1     252.9      69.9      46.5      34.2      14.7      14.3    0.000     0.000     0.000     0.000     0.000    0.60     0.00    0.00      0   -9.90   -9.00       12.8       11.7       11.7       11.7       11.7       11.7       11.7       11.7       11.7       11.7       11.7       11.7        0.0        0.0        0.0        0.0        0.0        0.0        0.0        0.0        0.0        0.0        0.0        0.0      1.3       0.2      -6.6      -2.9       0.8    391.85
    29     1  2011    29     2     146.8     6.6      0.0    0.0    6.6    0.0      0.6      0.0   -9.90      0.3      0.3    100      0.0      0.0   100      0.3     0.3     100      0.0    0.61     -9     -9      0      0      0    10.0    10.0    100    -9.00      0.0      0.0      0.0   100     0.0     0.000    -9.9    0.000   -9.900      -9        0.00    0.000    0.000     146.8    123.4    0.61    77.8     256.8      70.9      47.4      34.9      14.9      14.6    0.000     0.000     0.000     0.000     0.000    0.61     0.00    0.00      0   -9.90   -9.00       18.3       11.8       11.8       11.8       11.8       11.7       11.7       11.7       11.7       11.7       11.7       11.7        0.0        0.0        0.0        0.0        0.0        0.0        0.0        0.0        0.0        0.0        0.0        0.0      6.6       0.3      -1.6       1.1       3.9    391.85
    30     1  2011    30     2     146.9     3.6      0.0    0.0    3.6    0.0      3.3      0.0   -9.90      0.2      0.2    100      0.0      0.0   100      0.2     0.2     100      0.0    0.62     -9     -9      0      0      0    10.0    10.0    100    -9.00      0.0      0.0      0.0   100     0.0     0.000    -9.9    0.000   -9.900      -9        0.00    0.000    0.000     146.9    123.3    0.62    78.2     260.7      72.0      47.9      35.3      15.2      14.8    0.000     0.000     0.000     0.000     0.000    0.62     0.00    0.00      0   -9.90   -9.00       15.7       12.4       12.1       12.2       12.0       12.0       11.9       11.9       11.9       11.8       11.8       11.8        0.0        0.0        0.0        0.0        0.0        0.0        0.0        0.0        0.0        0.0        0.0        0.0      3.6       0.2      -3.6      -0.7       2.3    391.85
    31     1  2011    31     2     158.9    17.4      0.0    0.0   16.2    1.2      4.0      0.0   -9.90      0.2      0.2    100      0.0      0.0   100      0.2     0.2     100      0.0    0.63     -9     -9      0      0      0    10.0    10.0    100    -9.00      0.0      0.0      0.0   100     0.0     0.000    -9.9    0.000   -9.900      -9        0.00    0.000    0.000     158.9    135.3    0.63    91.4     264.6      73.1      48.7      35.8      15.4      15.0    0.000     0.000     0.000     0.000     0.000    0.63     0.00    0.00      0   -9.90   -9.00       28.5       12.2       12.0       12.1       12.0       11.9       11.9       11.9       11.9       11.8       11.8       11.8        0.0        0.0        0.0        0.0        0.0        0.0        0.0        0.0        0.0        0.0        0.0        0.0     17.4       0.2       2.1       3.2       4.3    391.85
     1     2  2011    32     2     166.9    20.5      0.0    0.0   18.7    1.8     10.5      0.0   -9.90      0.2      0.2    100      0.0      0.0   100      0.2     0.2     100      0.0    0.64     -9     -9      0      0      0    10.0    10.0    100    -9.00      0.0      0.0      0.0   100     0.0     0.000    -9.9    0.000   -9.900      -9        0.00    0.000    0.000     166.9    142.9    0.64    98.9     268.4      74.1      49.4      36.3      15.6      15.3    0.000     0.000     0.000     0.000     0.000    0.64     0.00    0.00      0   -9.90   -9.00       31.6       12.9       12.6       13.0       12.7       12.4       12.3       12.2       12.1       12.1       12.0       12.0        0.0        0.0        0.0        0.0        0.0        0.0        0.0        0.0        0.0        0.0        0.0        0.0     20.5       0.2       3.6       4.2       4.8    391.85
     2     2  2011    33     2     169.2    21.0      0.0    0.0   19.1    1.9     16.4      0.0   -9.90      0.4      0.4    100      0.0      0.0   100      0.4     0.4     100      0.0    0.65     -9     -9      0      0      0    10.0    10.0    100    -9.00      0.0      0.0      0.0   100     0.0     0.000    -9.9    0.000   -9.900      -9        0.00    0.000    0.000     169.2    144.9    0.65   101.3     272.1      75.2      50.5      37.2      15.9      15.5    0.000     0.000     0.000     0.000     0.000    0.65     0.00    0.00      0   -9.90   -9.00       31.8       12.8       12.7       13.3       13.0       12.7       12.5       12.4       12.3       12.3       12.2       12.2        0.0        0.0        0.0        0.0        0.0        0.0        0.0        0.0        0.0        0.0        0.0        0.0     21.0       0.4       3.3       3.9       4.6    391.85
     3     2  2011    34     2     165.5    15.8      0.0    0.0   14.9    0.9     18.3      0.0   -9.90      0.3      0.3    100      0.0      0.0   100      0.3     0.3     100      0.0    0.66     -9     -9      0      0      0    10.0    10.0    100    -9.00      0.0      0.0      0.0   100     0.0     0.000    -9.9    0.000   -9.900      -9        0.00    0.000    0.000     165.5    141.1    0.66    98.5     275.9      76.2      51.0      37.5      16.1      15.7    0.000     0.000     0.000     0.000     0.000    0.66     0.00    0.00      0   -9.90   -9.00       27.7       12.8       12.7       13.3       13.0       12.8       12.6       12.5       12.4       12.3       12.3       12.2        0.0        0.0        0.0        0.0        0.0        0.0        0.0        0.0        0.0        0.0        0.0        0.0     15.8       0.3       2.1       2.7       3.2    391.85
     4     2  2011    35     2     164.0    15.8      0.0    0.0   14.9    0.9     15.9      0.0   -9.90      0.5      0.5    100      0.0      0.0   100      0.5     0.5     100      0.0    0.67     -9     -9      0      0      0    10.0    10.0    100    -9.00      0.0      0.0      0.0   100     0.0     0.000    -9.9    0.000   -9.900      -9        0.00    0.000    0.000     164.0    139.7    0.67    98.5     279.6      77.2      52.3      38.6      16.4      15.9    0.000     0.000     0.000     0.000     0.000    0.67     0.00    0.00      0   -9.90   -9.00       27.5       12.9       12.6       13.0       12.8       12.6       12.4       12.4       12.3       12.2       12.2       12.1        0.0        0.0        0.0        0.0        0.0        0.0        0.0        0.0        0.0        0.0        0.0        0.0     15.8       0.6       1.9       3.2       4.4    391.85
     5     2  2011    36     2     165.0    17.0      0.0    0.0   15.9    1.1     14.7      0.0   -9.90      0.3      0.3    100      0.0      0.0   100      0.3     0.3     100      0.0    0.67     -9     -9      0      0      0    10.0    10.0    100    -9.00      0.0      0.0      0.0   100     0.0     0.000    -9.9    0.000   -9.900      -9        0.00    0.000    0.000     165.0    140.7    0.67   100.7     283.2      78.2      52.3      38.5      16.5      16.1    0.000     0.000     0.000     0.000     0.000    0.67     0.00    0.00      0   -9.90   -9.00       28.8       12.9       12.6       13.0       12.7       12.5       12.4       12.3       12.2       12.2       12.1       12.1        0.0        0.0        0.0        0.0        0.0        0.0        0.0        0.0        0.0        0.0        0.0        0.0     17.0       0.3       1.6       2.5       3.3    391.85
     6     2  2011    37     2     162.7    13.8      0.0    0.0   13.2    0.6     15.2      0.0   -9.90      0.3      0.3    100      0.0      0.0   100      0.3     0.3     100      0.0    0.68     -9     -9      0      0      0    10.0    10.0    100    -9.00      0.0      0.0      0.0   100     0.0     0.000    -9.9    0.000   -9.900      -9        0.00    0.000    0.000     162.7    138.4    0.68    99.4     286.8      79.2      53.0      39.0      16.7      16.3    0.000     0.000     0.000     0.000     0.000    0.68     0.00    0.00      0   -9.90   -9.00       26.0       12.9       12.6       13.1       12.8       12.6       12.5       12.3       12.3       12.2       12.2       12.1        0.0        0.0        0.0        0.0        0.0        0.0        0.0        0.0        0.0        0.0        0.0        0.0     13.8       0.3       2.5       3.4       4.3    391.85
     7     2  2011    38     2     159.1    10.8      0.0    0.0   10.5    0.3     13.9      0.0   -9.90      0.3      0.3    100      0.0      0.0   100      0.3     0.3     100      0.0    0.69     -9     -9      0      0      0    10.0    10.0    100    -9.00      0.0      0.0      0.0   100     0.0     0.000    -9.9    0.000   -9.900      -9        0.00    0.000    0.000     159.1    134.9    0.69    97.1     290.4      80.2      53.7      39.5      17.0      16.6    0.000     0.000     0.000     0.000     0.000    0.69     0.00    0.00      0   -9.90   -9.00       23.3       12.9       12.5       12.9       12.7       12.5       12.4       12.3       12.2       12.2       12.1       12.1        0.0        0.0        0.0        0.0        0.0        0.0        0.0        0.0        0.0        0.0        0.0        0.0     10.8       0.3       2.6       3.2       3.9    391.85
     8     2  2011    39     2     157.9    10.8      0.0    0.0   10.5    0.3     11.5      0.0   -9.90      0.2      0.2    100      0.0      0.0   100      0.2     0.2     100      0.0    0.70     -9     -9      0      0      0    10.0    10.0    100    -9.00      0.0      0.0      0.0   100     0.0     0.000    -9.9    0.000   -9.900      -9        0.00    0.000    0.000     157.9    133.8    0.70    97.4     294.0      81.2      54.1      39.8      17.2      16.8    0.000     0.000     0.000     0.000     0.000    0.70     0.00    0.00      0   -9.90   -9.00       23.3       12.8       12.4       12.7       12.5       12.3       12.2       12.2       12.1       12.1       12.0       12.0        0.0        0.0        0.0        0.0        0.0        0.0        0.0        0.0        0.0        0.0        0.0        0.0     10.8       0.2       1.7       2.6       3.6    391.85
     9     2  2011    40     2     149.6     2.8      0.0    0.0    2.8    0.0     10.8      0.0   -9.90      0.4      0.4    100      0.0      0.0   100      0.4     0.4     100      0.0    0.71     -9     -9      0      0      0    10.0    10.0    100    -9.00      0.0      0.0      0.0   100     0.0     0.000    -9.9    0.000   -9.900      -9        0.00    0.000    0.000     149.6    125.5    0.71    90.0     297.5      82.2      55.2      40.7      17.4      17.0    0.000     0.000     0.000     0.000     0.000    0.71     0.00    0.00      0   -9.90   -9.00       14.6       12.8       12.5       12.7       12.5       12.5       12.3       12.2       12.1       12.1       12.0       12.0        0.0        0.0        0.0        0.0        0.0        0.0        0.0        0.0        0.0        0.0        0.0        0.0      2.8       0.4      -2.2      -0.2       1.9    391.85
    10     2  2011    41     2     159.9    18.6      0.0    0.0   17.2    1.4      6.5      0.0   -9.90      0.4      0.4    100      0.0      0.0   100      0.4     0.4     100      0.0    0.72     -9     -9      0      0      0    10.0    10.0    100    -9.00      0.0      0.0      0.0   100     0.0     0.000    -9.9    0.000   -9.900      -9        0.00    0.000    0.000     159.9    136.1    0.72   102.3     301.0      83.1      55.9      41.2      17.6      17.2    0.000     0.000     0.000     0.000     0.000    0.72     0.00    0.00      0   -9.90   -9.00       29.2       12.1       12.0       12.1       12.0       12.0       12.0       11.9       11.9       11.9       11.9       11.9        0.0        0.0        0.0        0.0        0.0        0.0        0.0        0.0        0.0        0.0        0.0        0.0     18.6       0.4       2.1       3.2       4.3    391.85
    11     2  2011    42     2     148.4     0.0      0.0    0.0    0.0    0.0     11.2      0.0   -9.90      0.4      0.4    100      0.0      0.0   100      0.4     0.4     100      0.0    0.72     -9     -9      0      0      0    10.0    10.0    100    -9.00      0.0      0.0      0.0   100     0.0     0.000    -9.9    0.000   -9.900      -9        0.00    0.000    0.000     148.4    124.3    0.72    90.8     304.5      84.1      56.5      41.7      17.8      17.4    0.000     0.000     0.000     0.000     0.000    0.72     0.00    0.00      0   -9.90   -9.00       12.5       12.9       12.6       13.0       12.7       12.5       12.3       12.2       12.2       12.1       12.1       12.0        0.0        0.0        0.0        0.0        0.0        0.0        0.0        0.0        0.0        0.0        0.0        0.0      0.0       0.4      -7.2      -2.1       3.0    391.85
    12     2  2011    43     2     142.0     0.0      0.0    0.0    0.0    0.0      6.1      0.0   -9.90      0.3      0.3    100      0.0      0.0   100      0.3     0.3     100      0.0    0.73     -9     -9      0      0      0    10.0    10.0    100    -9.00      0.0      0.0      0.0   100     0.0     0.000    -9.9    0.000   -9.900      -9        0.00    0.000    0.000     142.0    118.2    0.73    86.3     307.9      85.1      56.9      41.9      18.0      17.6    0.000     0.000     0.000     0.000     0.000    0.73     0.00    0.00      0   -9.90   -9.00       11.5       11.9       11.8       12.0       12.0       12.0       11.9       11.9       11.9       11.9       11.9       11.9        0.0        0.0        0.0        0.0        0.0        0.0        0.0        0.0        0.0        0.0        0.0        0.0      0.0       0.3     -11.6      -7.6      -3.6    391.85
    13     2  2011    44     2     139.3     0.0      0.0    0.0    0.0    0.0      1.8      0.0   -9.90      0.9      0.9    100      0.0      0.0   100      0.9     0.9     100      0.0    0.74     -9     -9      0      0      0    10.0    10.0    100    -9.00      0.0      0.0      0.0   100     0.0     0.000    -9.9    0.000   -9.900      -9        0.00    0.000    0.000     139.3    115.8    0.74    85.3     311.4      86.0      59.2      43.8      18.4      17.8    0.000     0.000     0.000     0.000     0.000    0.74     0.00    0.00      0   -9.90   -9.00       10.6       11.7       11.7       11.8       11.8       11.8       11.8       11.8       11.7       11.7       11.7       11.7        0.0        0.0        0.0        0.0        0.0        0.0        0.0        0.0        0.0        0.0        0.0        0.0      0.0       1.0      -5.8      -2.6       0.6    391.85
    14     2  2011    45     2     139.2     1.5      0.0    0.0    1.5    0.0      0.4      0.0   -9.90      1.2      1.2    100      0.0      0.0   100      1.2     1.2     100      0.0    0.75     -9     -9      0      0      0    10.0    10.0    100    -9.00      0.0      0.0      0.0   100     0.0     0.000    -9.9    0.000   -9.900      -9        0.00    0.000    0.000     139.2    115.7    0.75    86.3     314.8      86.9      60.6      44.9      18.6      18.0    0.000     0.000     0.000     0.000     0.000    0.75     0.00    0.00      0   -9.90   -9.00       10.9       11.7       11.7       11.7       11.7       11.7       11.7       11.7       11.7       11.7       11.7       11.7        0.0        0.0        0.0        0.0        0.0        0.0        0.0        0.0        0.0        0.0        0.0        0.0      1.5       1.3      -2.6      -1.2       0.3    391.85
    15     2  2011    46     2     141.2     2.9      0.0    0.0    2.9    0.0      0.1      0.0   -9.90      0.7      0.7    100      0.0      0.0   100      0.7     0.7     100      0.0    0.76     -9     -9      0      0      0    10.0    10.0    100    -9.00      0.0      0.0      0.0   100     0.0     0.000    -9.9    0.000   -9.900      -9        0.00    0.000    0.000     141.2    117.8    0.76    89.3     318.1      87.9      60.0      44.4      18.7      18.2    0.000     0.000     0.000     0.000     0.000    0.76     0.00    0.00      0   -9.90   -9.00       13.2       11.7       11.7       11.7       11.7       11.7       11.7       11.7       11.7       11.7       11.7       11.7        0.0        0.0        0.0        0.0        0.0        0.0        0.0        0.0        0.0        0.0        0.0        0.0      2.9       0.8      -3.2      -2.8      -2.4    391.85
    16     2  2011    47     2     140.7     0.7      0.0    0.0    0.7    0.0      0.6      0.0   -9.90      0.6      0.6    100      0.0      0.0   100      0.6     0.6     100      0.0    0.76     -9     -9      0      0      0    10.0    10.0    100    -9.00      0.0      0.0      0.0   100     0.0     0.000    -9.9    0.000   -9.900      -9        0.00    0.000    0.000     140.7    117.2    0.76    89.6     321.5      88.8      60.4      44.6      18.9      18.4    0.000     0.000     0.000     0.000     0.000    0.76     0.00    0.00      0   -9.90   -9.00       11.9       11.9       11.8       11.8       11.8       11.8       11.7       11.7       11.7       11.7       11.7       11.7        0.0        0.0        0.0        0.0        0.0        0.0        0.0        0.0        0.0        0.0        0.0        0.0      0.7       0.7      -2.8      -2.0      -1.2    391.85
    17     2  2011    48     2     140.1     0.5      0.0    0.0    0.5    0.0      0.6      0.0   -9.90      0.5      0.5    100      0.0      0.0   100      0.5     0.5     100      0.0    0.77     -9     -9      0      0      0    10.0    10.0    100    -9.00      0.0      0.0      0.0   100     0.0     0.000    -9.9    0.000   -9.900      -9        0.00    0.000    0.000     140.1    116.6    0.77    89.9     324.8      89.7      60.8      44.9      19.1      18.6    0.000     0.000     0.000     0.000     0.000    0.77     0.00    0.00      0   -9.90   -9.00       11.7       11.7       11.7       11.7       11.7       11.7       11.7       11.7       11.7       11.7       11.7       11.7        0.0        0.0        0.0        0.0        0.0        0.0        0.0        0.0        0.0        0.0        0.0        0.0      0.5       0.6      -3.4      -1.6       0.3    391.85
    18     2  2011    49     2     139.7     0.0      0.0    0.0    0.0    0.0      0.2      0.0   -9.90      0.2      0.2     99      0.0      0.0   100      0.2     0.2      99      0.0    0.78     -9     -9      0      0      0    10.0    10.0    100    -9.00      0.0      0.0      0.0   100     0.0     0.000    -9.9    0.000   -9.900      -9        0.00    0.000    0.000     139.7    116.2    0.78    90.5     328.1      90.6      60.4      44.5      19.2      18.8    0.000     0.000     0.000     0.000     0.000    0.78     0.00    0.00      0   -9.90   -9.00       11.5       11.7       11.7       11.7       11.7       11.7       11.7       11.7       11.7       11.7       11.7       11.7        0.0        0.0        0.0        0.0        0.0        0.0        0.0        0.0        0.0        0.0        0.0        0.0      0.0       0.2      -7.4      -4.2      -0.9    391.85
    19     2  2011    50     2     139.4     0.0      0.0    0.0    0.0    0.0      0.1      0.0   -9.90      0.3      0.3     94      0.0      0.0   100      0.3     0.3      94      0.0    0.79     -9     -9      0      0      0    10.0    10.0    100    -9.00      0.0      0.0      0.0   100     0.0     0.000    -9.9    0.000   -9.900      -9        0.00    0.000    0.000     139.4    115.9    0.79    91.1     331.4      91.5      61.3      45.1      19.4      19.0    0.000     0.000     0.000     0.000     0.000    0.79     0.00    0.00      0   -9.90   -9.00       11.2       11.7       11.7       11.7       11.7       11.7       11.7       11.7       11.7       11.7       11.7       11.7        0.0        0.0        0.0        0.0        0.0        0.0        0.0        0.0        0.0        0.0        0.0        0.0      0.0       0.3     -10.3      -7.0      -3.6    391.85
    20     2  2011    51     2     139.1     0.0      0.0    0.0    0.0    0.0      0.0      0.0   -9.90      0.3      0.2     88      0.0      0.0   100      0.3     0.2      88      0.0    0.80     -9     -9      0      0      0    10.0    10.0    100    -9.00      0.0      0.0      0.0   100     0.0     0.000    -9.9    0.000   -9.900      -9        0.00    0.000    0.000     139.1    115.7    0.80    91.7     334.6      92.4      61.9      45.6      19.6      19.2    0.000     0.000     0.000     0.000     0.000    0.80     0.00    0.00      0   -9.90   -9.00       11.0       11.7       11.7       11.7       11.7       11.7       11.7       11.7       11.7       11.7       11.7       11.7        0.0        0.0        0.0        0.0        0.0        0.0        0.0        0.0        0.0        0.0        0.0        0.0      0.0       0.3      -9.5      -6.5      -3.5    391.85
    21     2  2011    52     2     138.9     0.0      0.0    0.0    0.0    0.0      0.0      0.0   -9.90      0.3      0.2     83      0.0      0.0   100      0.3     0.2      83      0.0    0.80     -9     -9      0      0      0    10.0    10.0    100    -9.00      0.0      0.0      0.0   100     0.0     0.000    -9.9    0.000   -9.900      -9        0.00    0.000    0.000     138.9    115.5    0.80    92.4     337.9      93.3      62.5      46.0      19.8      19.3    0.000     0.000     0.000     0.000     0.000    0.80     0.00    0.00      0   -9.90   -9.00       10.8       11.7       11.7       11.7       11.7       11.7       11.7       11.7       11.7       11.7       11.7       11.7        0.0        0.0        0.0        0.0        0.0        0.0        0.0        0.0        0.0        0.0        0.0        0.0      0.0       0.3     -11.0      -7.2      -3.4    391.85
    22     2  2011    53     2     138.5     0.0      0.0    0.0    0.0    0.0      0.0      0.0   -9.90      0.5      0.3     77      0.0      0.0   100      0.5     0.3      77      0.0    0.81     -9     -9      0      0      0    10.0    10.0    100    -9.00      0.0      0.0      0.0   100     0.0     0.000    -9.9    0.000   -9.900      -9        0.00    0.000    0.000     138.5    115.1    0.81    92.9     341.1      94.2      63.6      46.9      20.1      19.5    0.000     0.000     0.000     0.000     0.000    0.81     0.00    0.00      0   -9.90   -9.00       10.4       11.7       11.7       11.7       11.7       11.7       11.7       11.7       11.7       11.7       11.7       11.7        0.0        0.0        0.0        0.0        0.0        0.0        0.0        0.0        0.0        0.0        0.0        0.0      0.0       0.5      -8.5      -5.9      -3.3    391.85
    23     2  2011    54     2     138.4     0.5      0.0    0.0    0.5    0.0      0.0      0.0   -9.90      0.6      0.6     98      0.0      0.0   100      0.6     0.6      98      0.0    0.82     -9     -9      0      0      0    10.0    10.0    100    -9.00      0.0      0.0      0.0   100     0.0     0.000    -9.9    0.000   -9.900      -9        0.00    0.000    0.000     138.4    115.0    0.82    93.7     344.3      95.1      64.7      47.8      20.3      19.7    0.000     0.000     0.000     0.000     0.000    0.82     0.00    0.00      0   -9.90   -9.00       10.3       11.7       11.7       11.7       11.7       11.7       11.7       11.7       11.7       11.7       11.7       11.7        0.0        0.0        0.0        0.0        0.0        0.0        0.0        0.0        0.0        0.0        0.0        0.0      0.5       0.7      -9.3      -5.8      -2.2    391.85
    24     2  2011    55     2     146.0     8.3      0.0    0.0    8.3    0.0      0.0      0.0   -9.90      0.7      0.7    100      0.0      0.0   100      0.7     0.7     100      0.0    0.83     -9     -9      0      0      0    10.0    10.0    100    -9.00      0.0      0.0      0.0   100     0.0     0.000    -9.9    0.000   -9.900      -9        0.00    0.000    0.000     146.0    122.6    0.83   102.1     347.4      96.0      65.6      48.5      20.5      19.9    0.000     0.000     0.000     0.000     0.000    0.83     0.00    0.00      0   -9.90   -9.00       18.0       11.7       11.7       11.7       11.7       11.7       11.7       11.7       11.7       11.7       11.7       11.7        0.0        0.0        0.0        0.0        0.0        0.0        0.0        0.0        0.0        0.0        0.0        0.0      8.3       0.8      -1.7       0.6       2.9    391.85
    25     2  2011    56     2     149.0     6.4      0.0    0.0    6.4    0.0      2.7      0.0   -9.90      0.6      0.6    100      0.0      0.0   100      0.6     0.6     100      0.0    0.83     -9     -9      0      0      0    10.0    10.0    100    -9.00      0.0      0.0      0.0   100     0.0     0.000    -9.9    0.000   -9.900      -9        0.00    0.000    0.000     149.0    125.4    0.83   105.7     350.6      96.8      65.9      48.7      20.7      20.1    0.000     0.000     0.000     0.000     0.000    0.83     0.00    0.00      0   -9.90   -9.00       18.3       12.4       12.1       12.1       12.0       11.9       11.9       11.8       11.8       11.8       11.8       11.8        0.0        0.0        0.0        0.0        0.0        0.0        0.0        0.0        0.0        0.0        0.0        0.0      6.4       0.7       3.9       5.3       6.8    391.85
    26     2  2011    57     2     153.6    10.0      0.0    0.0    9.8    0.2      4.8      0.0   -9.90      0.4      0.4    100      0.0      0.0   100      0.4     0.4     100      0.0    0.84     -9     -9      0      0      0    10.0    10.0    100    -9.00      0.0      0.0      0.0   100     0.0     0.000    -9.9    0.000   -9.900      -9        0.00    0.000    0.000     153.6    129.9    0.84   110.9     353.7      97.7      65.7      48.4      20.8      20.3    0.000     0.000     0.000     0.000     0.000    0.84     0.00    0.00      0   -9.90   -9.00       22.1       12.5       12.1       12.3       12.1       12.0       12.0       11.9       11.9       11.9       11.9       11.8        0.0        0.0        0.0        0.0        0.0        0.0        0.0        0.0        0.0        0.0        0.0        0.0     10.0       0.4       2.7       4.1       5.5    391.85
    27     2  2011    58     2     153.9     8.1      0.0    0.0    8.0    0.1      7.5      0.0   -9.90      0.3      0.3    100      0.0      0.0   100      0.3     0.3     100      0.0    0.85     -9     -9      0      0      0    10.0    10.0    100    -9.00      0.0      0.0      0.0   100     0.0     0.000    -9.9    0.000   -9.900      -9        0.00    0.000    0.000     153.9    130.0    0.85   111.7     356.8      98.5      66.0      48.6      21.0      20.5    0.000     0.000     0.000     0.000     0.000    0.85     0.00    0.00      0   -9.90   -9.00       20.6       12.7       12.3       12.5       12.3       12.2       12.1       12.0       12.0       12.0       11.9       11.9        0.0        0.0        0.0        0.0        0.0        0.0        0.0        0.0        0.0        0.0        0.0        0.0      8.1       0.3       0.6       1.9       3.1    391.85
    28     2  2011    59     2     145.6     0.0      0.0    0.0    0.0    0.0      8.0      0.0   -9.90      0.3      0.3    100      0.0      0.0   100      0.3     0.3     100      0.0    0.85     -9     -9      0      0      0    10.0    10.0    100    -9.00      0.0      0.0      0.0   100     0.0     0.000    -9.9    0.000   -9.900      -9        0.00    0.000    0.000     145.6    121.7    0.85   104.3     359.9      99.4      66.5      49.1      21.2      20.7    0.000     0.000     0.000     0.000     0.000    0.85     0.00    0.00      0   -9.90   -9.00       12.4       12.6       12.3       12.5       12.3       12.2       12.1       12.1       12.0       12.0       11.9       11.9        0.0        0.0        0.0        0.0        0.0        0.0        0.0        0.0        0.0        0.0        0.0        0.0      0.0       0.3      -0.6       1.7       4.1    391.85
     1     3  2011    60     2     141.1     0.0      0.0    0.0    0.0    0.0      4.1      0.0   -9.90      0.4      0.4    100      0.0      0.0   100      0.4     0.4     100      0.0    0.86     -9     -9      0      0      0    10.0    10.0    100    -9.00      0.0      0.0      0.0   100     0.0     0.000    -9.9    0.000   -9.900      -9        0.00    0.000    0.000     141.1    117.5    0.86   101.2     363.0     100.3      67.4      49.7      21.4      20.8    0.000     0.000     0.000     0.000     0.000    0.86     0.00    0.00      0   -9.90   -9.00       11.4       11.8       11.8       11.9       11.9       11.9       11.9       11.8       11.8       11.8       11.8       11.8        0.0        0.0        0.0        0.0        0.0        0.0        0.0        0.0        0.0        0.0        0.0        0.0      0.0       0.4      -1.3       1.0       3.3    391.85
     2     3  2011    61     2     141.9     2.5      0.0    0.0    2.5    0.0      1.2      0.0   -9.90      0.5      0.5    100      0.0      0.0   100      0.5     0.5     100      0.0    0.87     -9     -9      0      0      0    10.0    10.0    100    -9.00      0.0      0.0      0.0   100     0.0     0.000    -9.9    0.000   -9.900      -9        0.00    0.000    0.000     141.9    118.5    0.87   103.1     366.1     101.1      68.3      50.4      21.6      21.0    0.000     0.000     0.000     0.000     0.000    0.87     0.00    0.00      0   -9.90   -9.00       13.5       11.7       11.7       11.7       11.7       11.7       11.7       11.7       11.7       11.7       11.7       11.7        0.0        0.0        0.0        0.0        0.0        0.0        0.0        0.0        0.0        0.0        0.0        0.0      2.5       0.5      -1.5       1.5       4.6    391.85
     3     3  2011    62     2     140.5     0.0      0.0    0.0    0.0    0.0      1.0      0.0   -9.90      0.4      0.4    100      0.0      0.0   100      0.4     0.4     100      0.0    0.88     -9     -9      0      0      0    10.0    10.0    100    -9.00      0.0      0.0      0.0   100     0.0     0.000    -9.9    0.000   -9.900      -9        0.00    0.000    0.000     140.5    117.1    0.88   102.6     369.1     101.9      68.5      50.6      21.7      21.2    0.000     0.000     0.000     0.000     0.000    0.88     0.00    0.00      0   -9.90   -9.00       11.6       11.9       11.8       11.8       11.8       11.8       11.8       11.7       11.7       11.7       11.7       11.7        0.0        0.0        0.0        0.0        0.0        0.0        0.0        0.0        0.0        0.0        0.0        0.0      0.0       0.4      -0.0       2.6       5.3    391.85
     4     3  2011    63     2     145.0     5.4      0.0    0.0    5.4    0.0      0.6      0.0   -9.90      0.4      0.4    100      0.0      0.0   100      0.4     0.4     100      0.0    0.88     -9     -9      0      0      0    10.0    10.0    100    -9.00      0.0      0.0      0.0   100     0.0     0.000    -9.9    0.000   -9.900      -9        0.00    0.000    0.000     145.0    121.5    0.88   107.9     372.2     102.8      69.1      51.0      21.9      21.4    0.000     0.000     0.000     0.000     0.000    0.88     0.00    0.00      0   -9.90   -9.00       16.7       11.7       11.7       11.7       11.7       11.7       11.7       11.7       11.7       11.7       11.7       11.7        0.0        0.0        0.0        0.0        0.0        0.0        0.0        0.0        0.0        0.0        0.0        0.0      5.4       0.4      -1.8       1.6       5.1    391.85
     5     3  2011    64     2     141.8     0.0      0.0    0.0    0.0    0.0      2.3      0.0   -9.90      0.8      0.8    100      0.0      0.0   100      0.8     0.8     100      0.0    0.89     -9     -9      0      0      0    10.0    10.0    100    -9.00      0.0      0.0      0.0   100     0.0     0.000    -9.9    0.000   -9.900      -9        0.00    0.000    0.000     141.8    118.3    0.89   105.4     375.2     103.6      71.1      52.6      22.2      21.5    0.000     0.000     0.000     0.000     0.000    0.89     0.00    0.00      0   -9.90   -9.00       11.5       12.3       12.0       12.1       11.9       11.9       11.8       11.8       11.8       11.8       11.8       11.8        0.0        0.0        0.0        0.0        0.0        0.0        0.0        0.0        0.0        0.0        0.0        0.0      0.0       0.9      -2.8       0.7       4.2    391.85
     6     3  2011    65     2     139.7     0.0      0.0    0.0    0.0    0.0      1.6      0.0   -9.90      0.5      0.5    100      0.0      0.0   100      0.5     0.5     100      0.0    0.90     -9     -9      0      0      0    10.0    10.0    100    -9.00      0.0      0.0      0.0   100     0.0     0.000    -9.9    0.000   -9.900      -9        0.00    0.000    0.000     139.7    116.2    0.90   104.2     378.2     104.4      70.8      52.3      22.3      21.7    0.000     0.000     0.000     0.000     0.000    0.90     0.00    0.00      0   -9.90   -9.00       10.9       11.8       11.7       11.8       11.8       11.8       11.8       11.8       11.8       11.8       11.7       11.7        0.0        0.0        0.0        0.0        0.0        0.0        0.0        0.0        0.0        0.0        0.0        0.0      0.0       0.6      -6.8      -2.3       2.2    391.85
     7     3  2011    66     2     148.8    10.2      0.0    0.0   10.1    0.1      0.5      0.0   -9.90      0.5      0.5    100      0.0      0.0   100      0.5     0.5     100      0.0    0.90     -9     -9      0      0      0    10.0    10.0    100    -9.00      0.0      0.0      0.0   100     0.0     0.000    -9.9    0.000   -9.900      -9        0.00    0.000    0.000     148.8    125.4    0.90   114.3     381.2     105.3      71.1      52.5      22.5      21.9    0.000     0.000     0.000     0.000     0.000    0.90     0.00    0.00      0   -9.90   -9.00       20.7       11.7       11.7       11.7       11.7       11.7       11.7       11.7       11.7       11.7       11.7       11.7        0.0        0.0        0.0        0.0        0.0        0.0        0.0        0.0        0.0        0.0        0.0        0.0     10.2       0.5      -0.3       1.7       3.6    391.85
     8     3  2011    67     2     157.6    14.3      0.0    0.0   13.6    0.7      4.2      0.0   -9.90      0.6      0.6    100      0.0      0.0   100      0.6     0.6     100      0.0    0.91     -9     -9      0      0      0    10.0    10.0    100    -9.00      0.0      0.0      0.0   100     0.0     0.000    -9.9    0.000   -9.900      -9        0.00    0.000    0.000     157.6    134.0    0.91   123.5     384.1     106.1      72.2      53.4      22.7      22.1    0.000     0.000     0.000     0.000     0.000    0.91     0.00    0.00      0   -9.90   -9.00       25.9       12.6       12.2       12.3       12.1       12.0       12.0       11.9       11.9       11.9       11.8       11.8        0.0        0.0        0.0        0.0        0.0        0.0        0.0        0.0        0.0        0.0        0.0        0.0     14.3       0.7       1.8       3.2       4.6    391.85
     9     3  2011    68     2     167.2    22.1      0.0    0.0   19.9    2.2      9.9      0.0   -9.90      0.5      0.5    100      0.0      0.0   100      0.5     0.5     100      0.0    0.92     -9     -9      0      0      0    10.0    10.0    100    -9.00      0.0      0.0      0.0   100     0.0     0.000    -9.9    0.000   -9.900      -9        0.00    0.000    0.000     167.2    143.2    0.92   133.4     387.1     106.9      72.2      53.3      22.8      22.3    0.000     0.000     0.000     0.000     0.000    0.92     0.00    0.00      0   -9.90   -9.00       32.5       12.9       12.5       12.8       12.6       12.4       12.2       12.2       12.1       12.0       12.0       12.0        0.0        0.0        0.0        0.0        0.0        0.0        0.0        0.0        0.0        0.0        0.0        0.0     22.1       0.5       0.2       1.4       2.5    391.85
    10     3  2011    69     2     152.4     2.6      0.0    0.0    2.6    0.0     16.8      0.0   -9.90      0.5      0.5    100      0.0      0.0   100      0.5     0.5     100      0.0    0.93     -9     -9      0      0      0    10.0    10.0    100    -9.00      0.0      0.0      0.0   100     0.0     0.000    -9.9    0.000   -9.900      -9        0.00    0.000    0.000     152.4    127.9    0.93   118.8     390.0     107.7      73.0      54.0      23.1      22.4    0.000     0.000     0.000     0.000     0.000    0.93     0.00    0.00      0   -9.90   -9.00       14.2       12.7       12.8       13.4       13.0       12.7       12.6       12.5       12.4       12.3       12.3       12.2        0.0        0.0        0.0        0.0        0.0        0.0        0.0        0.0        0.0        0.0        0.0        0.0      2.6       0.6      -2.0      -0.3       1.4    391.85
    11     3  2011    70     2     156.8    14.6      0.0    0.0   13.9    0.7      8.9      0.0   -9.90      0.5      0.5    100      0.0      0.0   100      0.5     0.5     100      0.0    0.93     -9     -9      0      0      0    10.0    10.0    100    -9.00      0.0      0.0      0.0   100     0.0     0.000    -9.9    0.000   -9.900      -9        0.00    0.000    0.000     156.8    132.9    0.93   124.9     392.9     108.5      73.6      54.4      23.2      22.6    0.000     0.000     0.000     0.000     0.000    0.93     0.00    0.00      0   -9.90   -9.00       25.6       12.0       11.9       12.1       12.1       12.1       12.0       12.0       12.0       12.0       12.0       11.9        0.0        0.0        0.0        0.0        0.0        0.0        0.0        0.0        0.0        0.0        0.0        0.0     14.6       0.6      -4.0      -0.6       2.8    391.85
    12     3  2011    71     2     150.5     3.8      0.0    0.0    3.8    0.0      9.6      0.0   -9.90      0.5      0.5    100      0.0      0.0   100      0.5     0.5     100      0.0    0.94     -9     -9      0      0      0    10.0    10.0    100    -9.00      0.0      0.0      0.0   100     0.0     0.000    -9.9    0.000   -9.900      -9        0.00    0.000    0.000     150.5    126.5    0.94   119.2     395.9     109.3      74.1      54.8      23.4      22.8    0.000     0.000     0.000     0.000     0.000    0.94     0.00    0.00      0   -9.90   -9.00       15.6       12.8       12.5       12.8       12.5       12.5       12.3       12.2       12.1       12.1       12.0       12.0        0.0        0.0        0.0        0.0        0.0        0.0        0.0        0.0        0.0        0.0        0.0        0.0      3.8       0.6      -0.7       1.6       4.0    391.85
    13     3  2011    72     2     160.2    18.5      0.0    0.0   17.1    1.4      6.8      0.0   -9.90      0.5      0.5    100      0.0      0.0   100      0.5     0.5     100      0.0    0.95     -9     -9      0      0      0    10.0    10.0    100    -9.00      0.0      0.0      0.0   100     0.0     0.000    -9.9    0.000   -9.900      -9        0.00    0.000    0.000     160.2    136.4    0.95   130.0     398.8     110.1      74.7      55.2      23.6      22.9    0.000     0.000     0.000     0.000     0.000    0.95     0.00    0.00      0   -9.90   -9.00       29.1       12.2       12.0       12.1       12.1       12.0       12.0       12.0       11.9       11.9       11.9       11.9        0.0        0.0        0.0        0.0        0.0        0.0        0.0        0.0        0.0        0.0        0.0        0.0     18.5       0.6      -0.2       2.1       4.4    391.85
    14     3  2011    73     2     148.2     0.0      0.0    0.0    0.0    0.0     11.4      0.0   -9.90      0.5      0.5    100      0.0      0.0   100      0.5     0.5     100      0.0    0.95     -9     -9      0      0      0    10.0    10.0    100    -9.00      0.0      0.0      0.0   100     0.0     0.000    -9.9    0.000   -9.900      -9        0.00    0.000    0.000     148.2    124.1    0.95   118.5     401.6     110.9      75.2      55.6      23.8      23.1    0.000     0.000     0.000     0.000     0.000    0.95     0.00    0.00      0   -9.90   -9.00       12.3       12.9       12.6       13.0       12.7       12.5       12.3       12.2       12.2       12.1       12.1       12.0        0.0        0.0        0.0        0.0        0.0        0.0        0.0        0.0        0.0        0.0        0.0        0.0      0.0       0.6      -0.0       2.8       5.6    391.85
    15     3  2011    74     2     141.4     0.0      0.0    0.0    0.0    0.0      6.1      0.0   -9.90      0.8      0.8    100      0.0      0.0   100      0.8     0.8     100      0.0    0.96     -9     -9      0      0      0    10.0    10.0    100    -9.00      0.0      0.0      0.0   100     0.0     0.000    -9.9    0.000   -9.900      -9        0.00    0.000    0.000     141.4    117.6    0.96   112.8     404.5     111.7      76.7      56.8      24.0      23.3    0.000     0.000     0.000     0.000     0.000    0.96     0.00    0.00      0   -9.90   -9.00       11.0       11.9       11.8       12.0       12.0       11.9       11.9       11.9       11.9       11.9       11.9       11.9        0.0        0.0        0.0        0.0        0.0        0.0        0.0        0.0        0.0        0.0        0.0        0.0      0.0       0.9      -0.5       3.1       6.7    391.85
    16     3  2011    75     2     138.3     0.0      0.0    0.0    0.0    0.0      1.8      0.0   -9.90      1.3      1.3    100      0.0      0.0   100      1.3     1.3     100      0.0    0.97     -9     -9      0      0      0    10.0    10.0    100    -9.00      0.0      0.0      0.0   100     0.0     0.000    -9.9    0.000   -9.900      -9        0.00    0.000    0.000     138.3    114.8    0.97   110.9     407.4     112.5      78.8      58.5      24.3      23.4    0.000     0.000     0.000     0.000     0.000    0.97     0.00    0.00      0   -9.90   -9.00        9.7       11.7       11.7       11.8       11.8       11.8       11.8       11.8       11.7       11.7       11.7       11.7        0.0        0.0        0.0        0.0        0.0        0.0        0.0        0.0        0.0        0.0        0.0        0.0      0.0       1.4      -3.5       1.5       6.4    391.85
    17     3  2011    76     2     141.1     4.1      0.0    0.0    4.1    0.0      0.4      0.0   -9.90      0.9      0.9    100      0.0      0.0   100      0.9     0.9     100      0.0    0.97     -9     -9      0      0      0    10.0    10.0    100    -9.00      0.0      0.0      0.0   100     0.0     0.000    -9.9    0.000   -9.900      -9        0.00    0.000    0.000     141.1    117.7    0.97   114.6     410.2     113.3      78.1      57.8      24.4      23.6    0.000     0.000     0.000     0.000     0.000    0.97     0.00    0.00      0   -9.90   -9.00       12.9       11.7       11.7       11.7       11.7       11.7       11.7       11.7       11.7       11.7       11.7       11.7        0.0        0.0        0.0        0.0        0.0        0.0        0.0        0.0        0.0        0.0        0.0        0.0      4.1       1.0      -3.9       0.7       5.2    391.85
    18     3  2011    77     2     147.2     7.3      0.0    0.0    7.3    0.0      0.6      0.0   -9.90      0.5      0.5    100      0.0      0.0   100      0.5     0.5     100      0.0    0.98     -9     -9      0      0      0    10.0    10.0    100    -9.00      0.0      0.0      0.0   100     0.0     0.000    -9.9    0.000   -9.900      -9        0.00    0.000    0.000     147.2    123.8    0.98   121.5     413.0     114.1      77.4      57.2      24.4      23.8    0.000     0.000     0.000     0.000     0.000    0.98     0.00    0.00      0   -9.90   -9.00       18.7       11.8       11.8       11.8       11.8       11.7       11.7       11.7       11.7       11.7       11.7       11.7        0.0        0.0        0.0        0.0        0.0        0.0        0.0        0.0        0.0        0.0        0.0        0.0      7.3       0.6      -0.0       1.9       3.7    391.85
    19     3  2011    78     2     147.1     4.2      0.0    0.0    4.2    0.0      3.5      0.0   -9.90      0.8      0.8    100      0.0      0.0   100      0.8     0.8     100      0.0    0.99     -9     -9      0      0      0    10.0    10.0    100    -9.00      0.0      0.0      0.0   100     0.0     0.000    -9.9    0.000   -9.900      -9        0.00    0.000    0.000     147.1    123.4    0.99   121.9     415.9     114.8      78.9      58.4      24.7      23.9    0.000     0.000     0.000     0.000     0.000    0.99     0.00    0.00      0   -9.90   -9.00       15.8       12.4       12.1       12.2       12.1       12.0       12.0       11.9       11.9       11.8       11.8       11.8        0.0        0.0        0.0        0.0        0.0        0.0        0.0        0.0        0.0        0.0        0.0        0.0      4.2       0.9       0.0       3.2       6.5    391.85
    20     3  2011    79     2     143.9     1.7      0.0    0.0    1.7    0.0      4.2      0.0   -9.90      0.7      0.7    100      0.0      0.0   100      0.7     0.7     100      0.0    0.99     -9     -9      0      0      0    10.0    10.0    100    -9.00      0.0      0.0      0.0   100     0.0     0.000    -9.9    0.000   -9.900      -9        0.00    0.000    0.000     143.9    120.2    0.99   119.4     418.7     115.6      79.1      58.5      24.8      24.1    0.000     0.000     0.000     0.000     0.000    0.99     0.00    0.00      0   -9.90   -9.00       13.0       12.2       12.0       12.1       12.0       12.0       11.9       11.9       11.9       11.9       11.8       11.8        0.0        0.0        0.0        0.0        0.0        0.0        0.0        0.0        0.0        0.0        0.0        0.0      1.7       0.8      -0.0       2.8       5.6    391.85
    21     3  2011    80     2     163.6    26.3      0.0    0.0   22.9    3.4      2.6      0.0   -9.90      0.5      0.5    100      0.0      0.0   100      0.5     0.5     100      0.0    1.00     -9     -9      0      0      0    10.0    10.0    100    -9.00      0.0      0.0      0.0   100     0.0     0.000    -9.9    0.000   -9.900      -9        0.00    0.000    0.000     163.6    140.1    1.00   140.1     421.5     116.4      78.9      58.3      25.0      24.3    0.000     0.000     0.000     0.000     0.000    1.00     0.00    0.00      0   -9.90   -9.00       34.7       11.9       11.8       11.9       11.8       11.8       11.8       11.8       11.8       11.8       11.8       11.8        0.0        0.0        0.0        0.0        0.0        0.0        0.0        0.0        0.0        0.0        0.0        0.0     26.3       0.6       4.1       5.5       7.0    391.85
    22     3  2011    81     2     167.4    19.9      0.0    0.0   18.2    1.7     13.6      0.0   -9.90      0.8      0.8    100      0.0      0.0   100      0.8     0.8     100      0.0    1.00     -9     -9      0      0      0    10.0    10.0    100    -9.00      0.0      0.0      0.0   100     0.0     0.000    -9.9    0.000   -9.900      -9        0.00    0.000    0.000     167.4    143.2    1.00   143.2     421.5     116.4      79.9      59.1      25.0      24.3    0.000     0.000     0.000     0.000     0.000    1.00     0.00    0.00      0   -9.90   -9.00       30.3       12.6       12.8       13.4       13.0       12.7       12.5       12.4       12.3       12.2       12.1       12.1        0.0        0.0        0.0        0.0        0.0        0.0        0.0        0.0        0.0        0.0        0.0        0.0     19.9       0.9       3.3       5.1       6.9    391.85
    23     3  2011    82     2     168.3    20.3      0.0    0.0   18.5    1.8     17.0      0.0   -9.90      0.6      0.6    100      0.0      0.0   100      0.6     0.6     100      0.0    1.00     -9     -9      0      0      0    10.0    10.0    100    -9.00      0.0      0.0      0.0   100     0.0     0.000    -9.9    0.000   -9.900      -9        0.00    0.000    0.000     168.3    143.9    1.00   143.9     421.5     116.4      79.3      58.6      25.0      24.3    0.000     0.000     0.000     0.000     0.000    1.00     0.00    0.00      0   -9.90   -9.00       31.0       12.8       12.7       13.2       12.9       12.7       12.5       12.4       12.3       12.3       12.2       12.2        0.0        0.0        0.0        0.0        0.0        0.0        0.0        0.0        0.0        0.0        0.0        0.0     20.3       0.7       2.5       4.8       7.2    391.85
    24     3  2011    83     2     151.8     2.2      0.0    0.0    2.2    0.0     18.0      0.0   -9.90      0.7      0.7    100      0.0      0.0   100      0.7     0.7     100      0.0    1.00     -9     -9      0      0      0    10.0    10.0    100    -9.00      0.0      0.0      0.0   100     0.0     0.000    -9.9    0.000   -9.900      -9        0.00    0.000    0.000     151.8    127.3    1.00   127.3     421.5     116.4      79.6      58.9      25.0      24.3    0.000     0.000     0.000     0.000     0.000    1.00     0.00    0.00      0   -9.90   -9.00       13.5       12.8       12.7       13.3       12.9       12.7       12.7       12.5       12.4       12.3       12.3       12.2        0.0        0.0        0.0        0.0        0.0        0.0        0.0        0.0        0.0        0.0        0.0        0.0      2.2       0.8       1.6       3.9       6.2    391.85
    25     3  2011    84     2     142.1     0.0      0.0    0.0    0.0    0.0      8.6      0.0   -9.90      1.0      1.0    100      0.0      0.0   100      1.0     1.0     100      0.0    1.00     -9     -9      0      0      0    10.0    10.0    100    -9.00      0.0      0.0      0.0   100     0.0     0.000    -9.9    0.000   -9.900      -9        0.00    0.000    0.000     142.1    118.3    1.00   118.3     421.5     116.4      80.6      59.7      25.1      24.3    0.000     0.000     0.000     0.000     0.000    1.00     0.00    0.00      0   -9.90   -9.00       10.9       12.0       11.9       12.1       12.0       12.0       12.0       12.0       12.0       12.0       11.9       11.9        0.0        0.0        0.0        0.0        0.0        0.0        0.0        0.0        0.0        0.0        0.0        0.0      0.0       1.1      -4.7      -1.1       2.6    391.85
    26     3  2011    85     2     138.9     0.0      0.0    0.0    0.0    0.0      2.4      0.0   -9.90      0.9      0.9     96      0.0      0.0   100      0.9     0.9      96      0.0    1.00     -9     -9      0      0      0    10.0    10.0    100    -9.00      0.0      0.0      0.0   100     0.0     0.000    -9.9    0.000   -9.900      -9        0.00    0.000    0.000     138.9    115.4    1.00   115.4     421.5     116.4      80.3      59.4      25.1      24.3    0.000     0.000     0.000     0.000     0.000    1.00     0.00    0.00      0   -9.90   -9.00       10.1       11.7       11.7       11.8       11.8       11.8       11.8       11.8       11.8       11.8       11.8       11.8        0.0        0.0        0.0        0.0        0.0        0.0        0.0        0.0        0.0        0.0        0.0        0.0      0.0       1.0      -9.0      -3.2       2.6    391.85
    27     3  2011    86     2     145.9     8.2      0.0    0.0    8.2    0.0      0.5      0.0   -9.90      0.6      0.6    100      0.0      0.0   100      0.6     0.6     100      0.0    1.00     -9     -9      0      0      0    10.0    10.0    100    -9.00      0.0      0.0      0.0   100     0.0     0.000    -9.9    0.000   -9.900      -9        0.00    0.000    0.000     145.9    122.5    1.00   122.5     421.5     116.4      79.3      58.6      25.0      24.3    0.000     0.000     0.000     0.000     0.000    1.00     0.00    0.00      0   -9.90   -9.00       17.8       11.7       11.7       11.7       11.7       11.7       11.7       11.7       11.7       11.7       11.7       11.7        0.0        0.0        0.0        0.0        0.0        0.0        0.0        0.0        0.0        0.0        0.0        0.0      8.2       0.7      -2.7       0.9       4.6    391.85
    28     3  2011    87     2     150.2     7.9      0.0    0.0    7.8    0.1      2.8      0.0   -9.90      0.8      0.8    100      0.0      0.0   100      0.8     0.8     100      0.0    1.00     -9     -9      0      0      0    10.0    10.0    100    -9.00      0.0      0.0      0.0   100     0.0     0.000    -9.9    0.000   -9.900      -9        0.00    0.000    0.000     150.2    126.6    1.00   126.6     421.5     116.4      79.9      59.1      25.0      24.3    0.000     0.000     0.000     0.000     0.000    1.00     0.00    0.00      0   -9.90   -9.00       19.6       12.4       12.1       12.1       12.0       11.9       11.9       11.8       11.8       11.8       11.8       11.8        0.0        0.0        0.0        0.0        0.0        0.0        0.0        0.0        0.0        0.0        0.0        0.0      7.9       0.9      -0.9       1.4       3.7    391.85
[...]
    10    12  2016    -9     0     167.9    23.2      0.0    0.0   20.7    2.5     11.9      0.0   -9.90      0.1      0.1    100      0.0      0.0   100      0.1     0.1     100      0.0    1.00     -9     -9     -9      0     -9     0.0     0.0      0    -9.00      0.0      0.0      0.0   100    13.3     8.586    85.0    7.298   -9.900      69        2.51    0.000    0.000     167.9    143.8    1.00   143.8     421.5     116.4      82.2      57.0      25.2      24.3    0.000     0.000     0.000     0.000     0.000    1.00     0.00    0.00      0   -9.90   -9.00       33.7       12.7       12.4       12.6       12.5       12.3       12.2       12.2       12.1       12.1       12.1       12.0        0.0        0.0        0.0        0.0        0.0        0.0        0.0        0.0        0.0        0.0        0.0        0.0     23.2       0.1       5.4       6.2       7.0    404.41
    11    12  2016    -9     0     154.1     3.6      0.0    0.0    3.6    0.0     17.5      0.0   -9.90      0.0      0.0    100      0.0      0.0   100      0.0     0.0     100      0.0    1.00     -9     -9     -9      0     -9     0.0     0.0      0    -9.00      0.0      0.0      0.0   100    13.3     8.586    85.0    7.298   -9.900      69        2.51    0.000    0.000     154.1    129.6    1.00   129.6     421.5     116.4      82.2      56.7      25.2      24.3    0.000     0.000     0.000     0.000     0.000    1.00     0.00    0.00      0   -9.90   -9.00       15.9       12.7       12.8       13.5       13.0       12.8       12.6       12.5       12.4       12.3       12.3       12.2        0.0        0.0        0.0        0.0        0.0        0.0        0.0        0.0        0.0        0.0        0.0        0.0      3.6       0.0       0.8       3.0       5.3    404.41
    12    12  2016    -9     0     146.7     2.6      0.0    0.0    2.6    0.0      9.8      0.0   -9.90      0.2      0.2    100      0.0      0.0   100      0.2     0.2     100      0.0    1.00     -9     -9     -9      0     -9     0.0     0.0      0    -9.00      0.0      0.0      0.0   100    13.3     8.586    85.0    7.298   -9.900      69        2.51    0.000    0.000     146.7    122.8    1.00   122.8     421.5     116.4      82.2      57.5      25.2      24.3    0.000     0.000     0.000     0.000     0.000    1.00     0.00    0.00      0   -9.90   -9.00       14.6       12.2       12.0       12.2       12.2       12.1       12.1       12.1       12.0       12.0       12.0       12.0        0.0        0.0        0.0        0.0        0.0        0.0        0.0        0.0        0.0        0.0        0.0        0.0      2.6       0.3       0.1       2.1       4.1    404.41
    13    12  2016    -9     0     144.7     2.4      0.0    0.0    2.4    0.0      4.4      0.0   -9.90      0.0      0.0    100      0.0      0.0   100      0.0     0.0     100      0.0    1.00     -9     -9     -9      0     -9     0.0     0.0      0    -9.00      0.0      0.0      0.0   100    13.3     8.586    85.0    7.298   -9.900      69        2.51    0.000    0.000     144.7    121.0    1.00   121.0     421.5     116.4      82.2      56.7      25.2      24.3    0.000     0.000     0.000     0.000     0.000    1.00     0.00    0.00      0   -9.90   -9.00       14.5       12.1       11.9       12.0       11.9       11.9       11.9       11.9       11.8       11.8       11.8       11.8        0.0        0.0        0.0        0.0        0.0        0.0        0.0        0.0        0.0        0.0        0.0        0.0      2.4       0.0      -0.6       2.3       5.2    404.41
    14    12  2016    -9     0     141.8     0.0      0.0    0.0    0.0    0.0      2.8      0.0   -9.90      0.1      0.1    100      0.0      0.0   100      0.1     0.1     100      0.0    1.00     -9     -9     -9      0     -9     0.0     0.0      0    -9.00      0.0      0.0      0.0   100    13.3     8.586    85.0    7.298   -9.900      69        2.51    0.000    0.000     141.8    118.2    1.00   118.2     421.5     116.4      82.2      57.2      25.2      24.3    0.000     0.000     0.000     0.000     0.000    1.00     0.00    0.00      0   -9.90   -9.00       11.9       12.1       11.9       11.9       11.9       11.9       11.8       11.8       11.8       11.8       11.8       11.8        0.0        0.0        0.0        0.0        0.0        0.0        0.0        0.0        0.0        0.0        0.0        0.0      0.0       0.2      -1.9      -0.2       1.5    404.41
    15    12  2016    -9     0     142.2     2.2      0.0    0.0    2.2    0.0      1.4      0.0   -9.90      0.4      0.4    100      0.0      0.0   100      0.4     0.4     100      0.0    1.00     -9     -9     -9      0     -9     0.0     0.0      0    -9.00      0.0      0.0      0.0   100    13.3     8.586    85.0    7.298   -9.900      69        2.51    0.000    0.000     142.2    118.7    1.00   118.7     421.5     116.4      82.2      58.3      25.2      24.3    0.000     0.000     0.000     0.000     0.000    1.00     0.00    0.00      0   -9.90   -9.00       13.6       11.8       11.7       11.8       11.8       11.8       11.8       11.8       11.7       11.7       11.7       11.7        0.0        0.0        0.0        0.0        0.0        0.0        0.0        0.0        0.0        0.0        0.0        0.0      2.2       0.6       2.2       4.2       6.3    404.41
    16    12  2016    -9     0     140.9     0.0      0.0    0.0    0.0    0.0      1.2      0.0   -9.90      0.1      0.1    100      0.0      0.0   100      0.1     0.1     100      0.0    1.00     -9     -9     -9      0     -9     0.0     0.0      0    -9.00      0.0      0.0      0.0   100    13.3     8.586    85.0    7.298   -9.900      69        2.51    0.000    0.000     140.9    117.4    1.00   117.4     421.5     116.4      82.2      57.2      25.2      24.3    0.000     0.000     0.000     0.000     0.000    1.00     0.00    0.00      0   -9.90   -9.00       11.8       11.9       11.8       11.8       11.8       11.8       11.8       11.8       11.7       11.7       11.7       11.7        0.0        0.0        0.0        0.0        0.0        0.0        0.0        0.0        0.0        0.0        0.0        0.0      0.0       0.2       4.2       5.1       5.9    404.41
    17    12  2016    -9     0     151.9    12.4      0.0    0.0   12.0    0.4      0.7      0.0   -9.90      0.2      0.2    100      0.0      0.0   100      0.2     0.2     100      0.0    1.00     -9     -9     -9      0     -9     0.0     0.0      0    -9.00      0.0      0.0      0.0   100    13.3     8.586    85.0    7.298   -9.900      69        2.51    0.000    0.000     151.9    128.5    1.00   128.5     421.5     116.4      82.2      57.5      25.2      24.3    0.000     0.000     0.000     0.000     0.000    1.00     0.00    0.00      0   -9.90   -9.00       23.7       11.7       11.7       11.7       11.7       11.7       11.7       11.7       11.7       11.7       11.7       11.7        0.0        0.0        0.0        0.0        0.0        0.0        0.0        0.0        0.0        0.0        0.0        0.0     12.4       0.3       3.4       4.7       5.9    404.41
    18    12  2016    -9     0     145.8     0.0      0.0    0.0    0.0    0.0      5.9      0.0   -9.90      0.2      0.2    100      0.0      0.0   100      0.2     0.2     100      0.0    1.00     -9     -9     -9      0     -9     0.0     0.0      0    -9.00      0.0      0.0      0.0   100    13.3     8.586    85.0    7.298   -9.900      69        2.51    0.000    0.000     145.8    122.1    1.00   122.1     421.5     116.4      82.2      57.5      25.2      24.3    0.000     0.000     0.000     0.000     0.000    1.00     0.00    0.00      0   -9.90   -9.00       12.6       12.8       12.4       12.6       12.3       12.2       12.1       12.0       12.0       11.9       11.9       11.9        0.0        0.0        0.0        0.0        0.0        0.0        0.0        0.0        0.0        0.0        0.0        0.0      0.0       0.3       1.5       3.2       4.9    404.41
    19    12  2016    -9     0     143.6     2.0      0.0    0.0    2.0    0.0      4.1      0.0   -9.90      0.1      0.1    100      0.0      0.0   100      0.1     0.1     100      0.0    1.00     -9     -9     -9      0     -9     0.0     0.0      0    -9.00      0.0      0.0      0.0   100    13.3     8.586    85.0    7.298   -9.900      69        2.51    0.000    0.000     143.6    119.9    1.00   119.9     421.5     116.4      82.2      57.2      25.2      24.3    0.000     0.000     0.000     0.000     0.000    1.00     0.00    0.00      0   -9.90   -9.00       13.7       11.8       11.8       11.9       11.9       11.9       11.9       11.9       11.8       11.8       11.8       11.8        0.0        0.0        0.0        0.0        0.0        0.0        0.0        0.0        0.0        0.0        0.0        0.0      2.0       0.2       4.9       6.0       7.1    404.41
    20    12  2016    -9     0     140.9     0.0      0.0    0.0    0.0    0.0      2.3      0.0   -9.90      0.4      0.4    100      0.0      0.0   100      0.4     0.4     100      0.0    1.00     -9     -9     -9      0     -9     0.0     0.0      0    -9.00      0.0      0.0      0.0   100    13.3     8.586    85.0    7.298   -9.900      69        2.51    0.000    0.000     140.9    117.4    1.00   117.4     421.5     116.4      82.2      58.3      25.2      24.3    0.000     0.000     0.000     0.000     0.000    1.00     0.00    0.00      0   -9.90   -9.00       11.6       12.0       11.8       11.9       11.8       11.8       11.8       11.8       11.8       11.8       11.8       11.8        0.0        0.0        0.0        0.0        0.0        0.0        0.0        0.0        0.0        0.0        0.0        0.0      0.0       0.6       5.9       6.6       7.3    404.41
    21    12  2016    -9     0     155.1    16.6      0.0    0.0   15.6    1.0      0.9      0.0   -9.90      0.5      0.5    100      0.0      0.0   100      0.5     0.5     100      0.0    1.00     -9     -9     -9      0     -9     0.0     0.0      0    -9.00      0.0      0.0      0.0   100    13.3     8.586    85.0    7.298   -9.900      69        2.51    0.000    0.000     155.1    131.6    1.00   131.6     421.5     116.4      82.2      58.9      25.2      24.3    0.000     0.000     0.000     0.000     0.000    1.00     0.00    0.00      0   -9.90   -9.00       26.9       11.7       11.7       11.7       11.7       11.7       11.7       11.7       11.7       11.7       11.7       11.7        0.0        0.0        0.0        0.0        0.0        0.0        0.0        0.0        0.0        0.0        0.0        0.0     16.6       0.8       4.1       5.2       6.4    404.41
    22    12  2016    -9     0     163.8    18.2      0.0    0.0   16.9    1.3      7.7      0.0   -9.90      0.4      0.4    100      0.0      0.0   100      0.4     0.4     100      0.0    1.00     -9     -9     -9      0     -9     0.0     0.0      0    -9.00      0.0      0.0      0.0   100    13.3     8.586    85.0    7.298   -9.900      69        2.51    0.000    0.000     163.8    139.9    1.00   139.9     421.5     116.4      82.2      58.3      25.2      24.3    0.000     0.000     0.000     0.000     0.000    1.00     0.00    0.00      0   -9.90   -9.00       29.6       12.9       12.5       12.8       12.5       12.3       12.2       12.1       12.0       12.0       12.0       11.9        0.0        0.0        0.0        0.0        0.0        0.0        0.0        0.0        0.0        0.0        0.0        0.0     18.2       0.6       3.3       4.4       5.5    404.41
    23    12  2016    -9     0     173.2    27.8      0.0    0.0   24.0    3.8     14.3      0.0   -9.90      0.3      0.3    100      0.0      0.0   100      0.3     0.3     100      0.0    1.00     -9     -9     -9      0     -9     0.0     0.0      0    -9.00      0.0      0.0      0.0   100    13.3     8.586    85.0    7.298   -9.900      69        2.51    0.000    0.000     173.2    148.9    1.00   148.9     421.5     116.4      82.2      57.8      25.2      24.3    0.000     0.000     0.000     0.000     0.000    1.00     0.00    0.00      0   -9.90   -9.00       36.6       12.8       12.7       13.2       12.8       12.6       12.5       12.3       12.3       12.3       12.2       12.1        0.0        0.0        0.0        0.0        0.0        0.0        0.0        0.0        0.0        0.0        0.0        0.0     27.8       0.4       3.3       4.8       6.3    404.41
    24    12  2016    -9     0     166.8    16.2      0.0    0.0   15.2    1.0     21.3      0.0   -9.90      0.4      0.4    100      0.0      0.0   100      0.4     0.4     100      0.0    1.00     -9     -9     -9      0     -9     0.0     0.0      0    -9.00      0.0      0.0      0.0   100    13.3     8.586    85.0    7.298   -9.900      69        2.51    0.000    0.000     166.8    142.1    1.00   142.1     421.5     116.4      82.2      58.3      25.2      24.3    0.000     0.000     0.000     0.000     0.000    1.00     0.00    0.00      0   -9.90   -9.00       27.6       12.4       12.8       13.7       13.3       13.0       12.8       12.6       12.5       12.4       12.3       12.3        0.0        0.0        0.0        0.0        0.0        0.0        0.0        0.0        0.0        0.0        0.0        0.0     16.2       0.6       2.6       4.0       5.4    404.41
    25    12  2016    -9     0     167.3    19.7      0.0    0.0   18.0    1.7     17.0      0.0   -9.90      0.5      0.5    100      0.0      0.0   100      0.5     0.5     100      0.0    1.00     -9     -9     -9      0     -9     0.0     0.0      0    -9.00      0.0      0.0      0.0   100    13.3     8.586    85.0    7.298   -9.900      69        2.51    0.000    0.000     167.3    142.9    1.00   142.9     421.5     116.4      82.2      58.9      25.2      24.3    0.000     0.000     0.000     0.000     0.000    1.00     0.00    0.00      0   -9.90   -9.00       30.7       12.9       12.6       13.0       12.8       12.6       12.5       12.4       12.3       12.3       12.2       12.2        0.0        0.0        0.0        0.0        0.0        0.0        0.0        0.0        0.0        0.0        0.0        0.0     19.7       0.8       3.4       6.4       9.3    404.41
    26    12  2016    -9     0     166.8    18.3      0.0    0.0   16.9    1.4     16.9      0.0   -9.90      0.6      0.6    100      0.0      0.0   100      0.6     0.6     100      0.0    1.00     -9     -9     -9      0     -9     0.0     0.0      0    -9.00      0.0      0.0      0.0   100    13.3     8.586    85.0    7.298   -9.900      69        2.51    0.000    0.000     166.8    142.4    1.00   142.4     421.5     116.4      82.2      59.1      25.2      24.3    0.000     0.000     0.000     0.000     0.000    1.00     0.00    0.00      0   -9.90   -9.00       29.5       12.8       12.7       13.3       12.9       12.7       12.5       12.4       12.3       12.3       12.2       12.2        0.0        0.0        0.0        0.0        0.0        0.0        0.0        0.0        0.0        0.0        0.0        0.0     18.3       0.9       2.8       4.6       6.4    404.41
    27    12  2016    -9     0     149.9     0.0      0.0    0.0    0.0    0.0     16.6      0.0   -9.90      0.3      0.3    100      0.0      0.0   100      0.3     0.3     100      0.0    1.00     -9     -9     -9      0     -9     0.0     0.0      0    -9.00      0.0      0.0      0.0   100    13.3     8.586    85.0    7.298   -9.900      69        2.51    0.000    0.000     149.9    125.5    1.00   125.5     421.5     116.4      82.2      58.1      25.2      24.3    0.000     0.000     0.000     0.000     0.000    1.00     0.00    0.00      0   -9.90   -9.00       12.5       12.8       12.7       13.2       12.9       12.6       12.5       12.4       12.3       12.3       12.2       12.2        0.0        0.0        0.0        0.0        0.0        0.0        0.0        0.0        0.0        0.0        0.0        0.0      0.0       0.5       3.2       4.0       4.8    404.41
    28    12  2016    -9     0     142.4     0.0      0.0    0.0    0.0    0.0      7.4      0.0   -9.90      0.1      0.1    100      0.0      0.0   100      0.1     0.1     100      0.0    1.00     -9     -9     -9      0     -9     0.0     0.0      0    -9.00      0.0      0.0      0.0   100    13.3     8.586    85.0    7.298   -9.900      69        2.51    0.000    0.000     142.4    118.5    1.00   118.5     421.5     116.4      82.2      57.2      25.2      24.3    0.000     0.000     0.000     0.000     0.000    1.00     0.00    0.00      0   -9.90   -9.00       11.7       11.9       11.8       12.0       12.0       12.0       12.0       12.0       11.9       11.9       11.9       11.9        0.0        0.0        0.0        0.0        0.0        0.0        0.0        0.0        0.0        0.0        0.0        0.0      0.0       0.2       2.9       4.2       5.6    404.41
    29    12  2016    -9     0     142.2     2.1      0.0    0.0    2.1    0.0      2.0      0.0   -9.90      0.3      0.3    100      0.0      0.0   100      0.3     0.3     100      0.0    1.00     -9     -9     -9      0     -9     0.0     0.0      0    -9.00      0.0      0.0      0.0   100    13.3     8.586    85.0    7.298   -9.900      69        2.51    0.000    0.000     142.2    118.7    1.00   118.7     421.5     116.4      82.2      57.8      25.2      24.3    0.000     0.000     0.000     0.000     0.000    1.00     0.00    0.00      0   -9.90   -9.00       13.6       11.7       11.7       11.8       11.8       11.8       11.8       11.8       11.8       11.8       11.8       11.8        0.0        0.0        0.0        0.0        0.0        0.0        0.0        0.0        0.0        0.0        0.0        0.0      2.1       0.4       5.7       6.2       6.8    404.41
    30    12  2016    -9     0     168.6    33.9      0.0    0.0   28.0    5.9      1.3      0.0   -9.90      0.4      0.4    100      0.0      0.0   100      0.4     0.4     100      0.1    1.00     -9     -9     -9      0     -9     0.0     0.0      0    -9.00      0.0      0.0      0.0   100    13.3     8.586    85.0    7.298   -9.900      69        2.51    0.000    0.000     168.6    145.1    1.00   145.1     421.5     116.4      82.2      58.3      25.2      24.3    0.000     0.000     0.000     0.000     0.000    1.00     0.00    0.00      0   -9.90   -9.00       40.1       11.9       11.8       11.8       11.8       11.8       11.8       11.8       11.7       11.7       11.7       11.7        0.0        0.0        0.0        0.0        0.0        0.0        0.0        0.0        0.0        0.0        0.0        0.0     33.9       0.6       7.0       8.1       9.2    404.41
    31    12  2016    -9     0     173.6    26.3      0.0    0.0   22.9    3.4     17.6      0.0   -9.90      0.3      0.3    100      0.0      0.0   100      0.3     0.3     100      0.0    1.00     -9     -9     -9      0     -9     0.0     0.0      0    -9.00      0.0      0.0      0.0   100    13.3     8.586    85.0    7.298   -9.900      69        2.51    0.000    0.000     173.6    149.1    1.00   149.1     421.5     116.4      82.2      58.1      25.2      24.3    0.000     0.000     0.000     0.000     0.000    1.00     0.00    0.00      0   -9.90   -9.00       35.1       12.0       12.9       13.9       13.3       13.0       12.7       12.6       12.4       12.3       12.3       12.2        0.0        0.0        0.0        0.0        0.0        0.0        0.0        0.0        0.0        0.0        0.0        0.0     26.3       0.5       3.7       6.5       9.3    404.41
