AquaCrop 7.1 (August 2023) - Output created on (date) : 19-08-2023   at (time) : 13:48:27

    RunNr     Day1   Month1    Year1     Rain      ETo       GD     CO2      Irri   Infilt   Runoff    Drain   Upflow        E     E/Ex       Tr      TrW   Tr/Trx    SaltIn   SaltOut    SaltUp  SaltProf     Cycle   SaltStr  FertStr  WeedStr  TempStr   ExpStr   StoStr  BioMass  Brelative   HI    Y(dry)  Y(fresh)    WPet      Bin     Bout     DayN   MonthN    YearN
                                           mm       mm  degC.day    ppm        mm       mm       mm       mm       mm       mm        %       mm       mm        %    ton/ha    ton/ha    ton/ha    ton/ha      days       %        %        %        %        %        %    ton/ha        %       %    ton/ha   ton/ha    kg/m3   ton/ha   ton/ha
   Tot(1)        1        1     2011   2786.1    359.0    301.9   391.85      0.0   2527.4    258.7   2326.2      0.0    157.5       84     34.3     34.3      100     0.000     0.000     0.000     0.000      267        0       30        0       92        0        0     2.424       68     85.0    2.061   -9.900     1.17    0.000    0.000       31       12     2011  1_1.PRM
   Tot(2)        1        1     2012   2133.0    378.9    227.7   394.06      0.0   1982.8    150.2   1737.1      0.0    181.2       83     26.8     26.8      100     0.000     0.000     0.000     0.000      267        0       30        0       94        0        0     1.870       70     85.0    1.589   -9.900     0.83    0.000    0.000       31       12     2012  1_1.PRM
   Tot(3)        1        1     2013   2077.3    383.3    339.3   396.74      0.0   1904.6    172.7   1702.1      0.0    169.8       92     49.0     49.0      100     0.000     0.000     0.000     0.000      267        0       30        0       90        0        0     2.980       68     85.0    2.533   -9.900     1.25    0.000    0.000       31       12     2013  1_1.PRM
   Tot(4)        1        1     2014   2254.9    439.9    415.0   398.81      0.0   2030.3    224.6   1818.5      0.0    168.4       78     68.4     68.4      100     0.000     0.000     0.000     0.000      267        0       30        0       87        0        0     3.843       70     85.0    3.266   -9.900     1.51    0.000    0.000       31       12     2014  1_1.PRM
   Tot(5)        1        1     2015   2919.5    387.3    239.4   401.01      0.0   2601.9    317.6   2346.5      0.0    211.8       91     34.4     34.4      100     0.000     0.000     0.000     0.000      267        0       30        0       93        0        0     2.082       69     85.0    1.770   -9.900     0.77    0.000    0.000       31       12     2015  1_1.PRM
   Tot(6)        1        1     2016   1842.6    381.3    323.4   404.41      0.0   1692.4    150.2   1477.9      0.0    155.5       79     38.2     38.2      100     0.000     0.000     0.000     0.000      267        0       30        0       91        0        0     2.649       68     85.0    2.252   -9.900     1.28    0.000    0.000       31       12     2016  1_1.PRM
