AquaCrop 7.1 (August 2023) - Output created on (date) : 19-08-2023   at (time) : 13:48:26

   Run:   1
   Day Month  Year   DAP Stage   WC(1.20)   Rain     Irri   Surf   Infilt   RO    Drain       CR    Zgwt       Ex       E     E/Ex     Trx       Tr  Tr/Trx    ETx      ET  ET/ETx      GD       Z     StExp  StSto  StSen StSalt StWeed   CC      CCw     StTr  Kc(Tr)     Trx       Tr      TrW  Tr/Trx   WP    Biomass     HI    Y(dry)  Y(fresh)  Brelative    WPet      Bin     Bout  WC(1.20) Wr(1.00)     Z       Wr    Wr(SAT)    Wr(FC)   Wr(exp)   Wr(sto)   Wr(sen)   Wr(PWP)    SaltIn    SaltOut   SaltUp   Salt(1.20)  SaltZ     Z       ECe    ECsw   StSalt  Zgwt    ECgw       WC01       WC 2       WC 3       WC 4       WC 5       WC 6       WC 7       WC 8       WC 9       WC10       WC11       WC12      ECe01      ECe 2      ECe 3      ECe 4      ECe 5      ECe 6      ECe 7      ECe 8      ECe 9      ECe10      ECe11      ECe12     Rain       ETo      Tmin      Tavg      Tmax      CO2
                                      mm      mm       mm     mm     mm     mm       mm       mm      m        mm       mm     %        mm       mm    %        mm      mm       %  degC-day     m       %      %      %      %      %      %       %       %       -        mm       mm       mm    %     g/m2    ton/ha      %    ton/ha   ton/ha       %       kg/m3   ton/ha   ton/ha      mm       mm       m       mm        mm        mm        mm        mm        mm         mm    ton/ha    ton/ha    ton/ha    ton/ha    ton/ha     m      dS/m    dS/m      %     m      dS/m       0.05       0.15       0.25       0.35       0.45       0.55       0.65       0.75       0.85       0.95       1.05       1.15       0.05       0.15       0.25       0.35       0.45       0.55       0.65       0.75       0.85       0.95       1.05       1.15       mm        mm     degC      degC      degC       ppm
     1     1  2011     1     2     184.2     0.3      0.0    0.0    0.3    0.0      0.0      0.0   -9.90      0.1      0.1    100      0.0      0.0   100      0.1     0.1     100      0.0    0.30     -9     -9      0      0      0    10.0    10.0    100    -9.00      0.0      0.0      0.0   100     0.0     0.000    -9.9    0.000   -9.900      -9        0.00    0.000    0.000     184.2    152.6    0.30    42.0     114.1      41.8      28.7      21.8      11.0      10.9    0.000     0.000     0.000     0.000     0.000    0.30     0.00    0.00      0   -9.90   -9.00       16.0       15.8       15.8       15.8       15.8       15.8       15.8       15.8       15.8       15.8       15.8       15.8        0.0        0.0        0.0        0.0        0.0        0.0        0.0        0.0        0.0        0.0        0.0        0.0      0.3       0.1      -4.2      -2.1       0.1    391.85
     2     1  2011     2     2     184.2     0.0      0.0    0.0    0.0    0.0      0.1      0.0   -9.90      0.0      0.0    100      0.0      0.0   100      0.0     0.0     100      0.0    0.30     -9     -9      0      0      0    10.0    10.0    100    -9.00      0.0      0.0      0.0   100     0.0     0.000    -9.9    0.000   -9.900      -9        0.00    0.000    0.000     184.2    152.6    0.30    41.9     114.1      41.8      28.6      21.7      11.0      10.9    0.000     0.000     0.000     0.000     0.000    0.30     0.00    0.00      0   -9.90   -9.00       15.8       15.8       15.8       15.8       15.8       15.8       15.8       15.8       15.8       15.8       15.8       15.8        0.0        0.0        0.0        0.0        0.0        0.0        0.0        0.0        0.0        0.0        0.0        0.0      0.0       0.0     -11.3      -7.8      -4.3    391.85
     3     1  2011     3     2     189.6     5.6      0.0    0.0    5.6    0.0      0.1      0.0   -9.90      0.1      0.1    100      0.0      0.0   100      0.1     0.1     100      0.0    0.30     -9     -9      0      0      0    10.0    10.0    100    -9.00      0.0      0.0      0.0   100     0.0     0.000    -9.9    0.000   -9.900      -9        0.00    0.000    0.000     189.6    158.0    0.30    47.3     114.1      41.8      28.7      21.8      11.0      10.9    0.000     0.000     0.000     0.000     0.000    0.30     0.00    0.00      0   -9.90   -9.00       22.1       15.8       15.8       15.8       15.8       15.8       15.8       15.8       15.8       15.8       15.8       15.8        0.0        0.0        0.0        0.0        0.0        0.0        0.0        0.0        0.0        0.0        0.0        0.0      5.6       0.1     -11.0      -7.2      -3.3    391.85
     4     1  2011     4     2     191.6     4.1      0.0    0.0    4.1    0.0      2.0      0.0   -9.90      0.1      0.1    100      0.0      0.0   100      0.1     0.1     100      0.0    0.32     -9     -9      0      0      0    10.0    10.0    100    -9.00      0.0      0.0      0.0   100     0.0     0.000    -9.9    0.000   -9.900      -9        0.00    0.000    0.000     191.6    159.9    0.32    50.3     121.5      44.5      30.6      23.3      11.8      11.6    0.000     0.000     0.000     0.000     0.000    0.32     0.00    0.00      0   -9.90   -9.00       21.1       16.5       16.2       16.4       16.2       16.1       16.0       16.0       15.9       15.9       15.9       15.9        0.0        0.0        0.0        0.0        0.0        0.0        0.0        0.0        0.0        0.0        0.0        0.0      4.1       0.1      -3.6      -2.5      -1.3    391.85
     5     1  2011     5     2     200.4    12.8      0.0    0.0   12.3    0.5      3.4      0.0   -9.90      0.2      0.2    100      0.0      0.0   100      0.2     0.2     100      0.0    0.33     -9     -9      0      0      0    10.0    10.0    100    -9.00      0.0      0.0      0.0   100     0.0     0.000    -9.9    0.000   -9.900      -9        0.00    0.000    0.000     200.4    168.5    0.33    61.2     129.0      47.3      32.6      24.9      12.6      12.4    0.000     0.000     0.000     0.000     0.000    0.33     0.00    0.00      0   -9.90   -9.00       30.3       16.5       16.2       16.4       16.2       16.2       16.1       16.0       16.0       16.0       16.0       15.9        0.0        0.0        0.0        0.0        0.0        0.0        0.0        0.0        0.0        0.0        0.0        0.0     12.8       0.2      -2.3      -1.8      -1.2    391.85
     6     1  2011     6     2     206.9    14.8      0.0    0.0   14.1    0.7      7.2      0.0   -9.90      0.3      0.3    100      0.0      0.0   100      0.3     0.3     100      0.0    0.35     -9     -9      0      0      0    10.0    10.0    100    -9.00      0.0      0.0      0.0   100     0.0     0.000    -9.9    0.000   -9.900      -9        0.00    0.000    0.000     206.9    174.7    0.35    67.5     136.0      49.8      34.5      26.3      13.3      13.1    0.000     0.000     0.000     0.000     0.000    0.35     0.00    0.00      0   -9.90   -9.00       32.8       17.1       16.7       17.3       16.9       16.6       16.4       16.3       16.2       16.2       16.1       16.1        0.0        0.0        0.0        0.0        0.0        0.0        0.0        0.0        0.0        0.0        0.0        0.0     14.8       0.3      -4.4      -3.0      -1.6    391.85
     7     1  2011     7     2     200.8     5.5      0.0    0.0    5.5    0.0     11.6      0.0   -9.90      0.0      0.0    100      0.0      0.0   100      0.0     0.0     100      0.0    0.37     -9     -9      0      0      0    10.0    10.0    100    -9.00      0.0      0.0      0.0   100     0.0     0.000    -9.9    0.000   -9.900      -9        0.00    0.000    0.000     200.8    168.2    0.37    61.8     142.6      52.2      35.7      27.3      14.0      13.7    0.000     0.000     0.000     0.000     0.000    0.37     0.00    0.00      0   -9.90   -9.00       22.9       17.2       16.8       17.7       17.2       16.9       16.7       16.6       16.5       16.4       16.4       16.3        0.0        0.0        0.0        0.0        0.0        0.0        0.0        0.0        0.0        0.0        0.0        0.0      5.5       0.0      -7.6      -6.3      -5.0    391.85
     8     1  2011     8     2     203.5    12.8      0.0    0.0   12.3    0.5      9.4      0.0   -9.90      0.3      0.3    100      0.0      0.0   100      0.3     0.3     100      0.0    0.38     -9     -9      0      0      0    10.0    10.0    100    -9.00      0.0      0.0      0.0   100     0.0     0.000    -9.9    0.000   -9.900      -9        0.00    0.000    0.000     203.5    171.1    0.38    69.4     148.9      54.5      37.8      28.9      14.6      14.4    0.000     0.000     0.000     0.000     0.000    0.38     0.00    0.00      0   -9.90   -9.00       30.4       16.7       16.3       16.7       16.6       16.5       16.4       16.3       16.3       16.2       16.2       16.2        0.0        0.0        0.0        0.0        0.0        0.0        0.0        0.0        0.0        0.0        0.0        0.0     12.8       0.3      -7.8      -4.8      -1.7    391.85
     9     1  2011     9     2     222.7    36.0      0.0    0.0   29.3    6.7      9.8      0.0   -9.90      0.3      0.3    100      0.0      0.0   100      0.3     0.3     100      0.0    0.39     -9     -9      0      0      0    10.0    10.0    100    -9.00      0.0      0.0      0.0   100     0.0     0.000    -9.9    0.000   -9.900      -9        0.00    0.000    0.000     222.7    190.2    0.39    90.0     154.9      56.7      39.3      30.0      15.3      15.0    0.000     0.000     0.000     0.000     0.000    0.39     0.00    0.00      0   -9.90   -9.00       42.8       24.0       16.7       17.3       16.9       16.7       16.5       16.4       16.3       16.3       16.2       16.2        0.0        0.0        0.0        0.0        0.0        0.0        0.0        0.0        0.0        0.0        0.0        0.0     36.0       0.3      -2.4      -1.5      -0.6    391.85
    10     1  2011    10     2     231.3    36.1      0.0    0.0   29.4    6.7     20.5      0.0   -9.90      0.2      0.2    100      0.0      0.0   100      0.2     0.2     100      0.0    0.41     -9     -9      0      0      0    10.0    10.0    100    -9.00      0.0      0.0      0.0   100     0.0     0.000    -9.9    0.000   -9.900      -9        0.00    0.000    0.000     231.3    198.0    0.41    94.4     160.7      58.8      40.6      31.0      15.8      15.6    0.000     0.000     0.000     0.000     0.000    0.41     0.00    0.00      0   -9.90   -9.00       42.9       23.5       17.2       19.3       18.5       17.9       17.5       17.2       17.0       16.9       16.7       16.6        0.0        0.0        0.0        0.0        0.0        0.0        0.0        0.0        0.0        0.0        0.0        0.0     36.1       0.2      -2.8      -1.5      -0.3    391.85
    11     1  2011    11     2     229.6    30.7      0.0    0.0   25.9    4.8     27.5      0.0   -9.90      0.2      0.2    100      0.0      0.0   100      0.2     0.2     100      0.0    0.42     -9     -9      0      0      0    10.0    10.0    100    -9.00      0.0      0.0      0.0   100     0.0     0.000    -9.9    0.000   -9.900      -9        0.00    0.000    0.000     229.6    195.7    0.42    93.1     166.4      60.9      42.0      32.1      16.4      16.2    0.000     0.000     0.000     0.000     0.000    0.42     0.00    0.00      0   -9.90   -9.00       42.9       19.2       17.2       19.3       18.6       18.1       17.8       17.5       17.3       17.1       17.0       16.9        0.0        0.0        0.0        0.0        0.0        0.0        0.0        0.0        0.0        0.0        0.0        0.0     30.7       0.2      -3.1      -1.6      -0.0    391.85
    12     1  2011    12     2     202.8     0.1      0.0    0.0    0.1    0.0     26.9      0.0   -9.90      0.0      0.0    100      0.0      0.0   100      0.0     0.0     100      0.0    0.43     -9     -9      0      0      0    10.0    10.0    100    -9.00      0.0      0.0      0.0   100     0.0     0.000    -9.9    0.000   -9.900      -9        0.00    0.000    0.000     202.8    169.0    0.43    69.5     171.8      62.8      43.1      32.9      17.0      16.7    0.000     0.000     0.000     0.000     0.000    0.43     0.00    0.00      0   -9.90   -9.00       16.6       16.6       17.2       19.0       18.3       17.9       17.6       17.4       17.2       17.1       16.9       16.9        0.0        0.0        0.0        0.0        0.0        0.0        0.0        0.0        0.0        0.0        0.0        0.0      0.1       0.0      -9.8      -6.5      -3.2    391.85
    13     1  2011    13     2     200.5    10.9      0.0    0.0   10.6    0.3     12.7      0.0   -9.90      0.2      0.2    100      0.0      0.0   100      0.2     0.2     100      0.0    0.45     -9     -9      0      0      0    10.0    10.0    100    -9.00      0.0      0.0      0.0   100     0.0     0.000    -9.9    0.000   -9.900      -9        0.00    0.000    0.000     200.5    167.9    0.45    76.9     177.1      64.8      44.8      34.2      17.5      17.2    0.000     0.000     0.000     0.000     0.000    0.45     0.00    0.00      0   -9.90   -9.00       27.8       15.9       16.0       16.8       16.6       16.4       16.4       16.4       16.4       16.3       16.3       16.3        0.0        0.0        0.0        0.0        0.0        0.0        0.0        0.0        0.0        0.0        0.0        0.0     10.9       0.2      -9.1      -5.8      -2.4    391.85
    14     1  2011    14     2     198.3     6.4      0.0    0.0    6.4    0.0      8.6      0.0   -9.90      0.0      0.0    100      0.0      0.0   100      0.0     0.0     100      0.0    0.46     -9     -9      0      0      0    10.0    10.0    100    -9.00      0.0      0.0      0.0   100     0.0     0.000    -9.9    0.000   -9.900      -9        0.00    0.000    0.000     198.3    166.0    0.46    77.3     182.3      66.7      45.7      35.0      18.0      17.8    0.000     0.000     0.000     0.000     0.000    0.46     0.00    0.00      0   -9.90   -9.00       24.0       17.0       16.5       17.0       16.7       16.5       16.4       16.3       16.2       16.2       16.2       16.1        0.0        0.0        0.0        0.0        0.0        0.0        0.0        0.0        0.0        0.0        0.0        0.0      6.4       0.0      -3.3      -2.2      -1.2    391.85
    15     1  2011    15     2     207.9    18.7      0.0    0.0   17.3    1.4      7.3      0.0   -9.90      0.4      0.4    100      0.0      0.0   100      0.4     0.4     100      0.0    0.47     -9     -9      0      0      0    10.0    10.0    100    -9.00      0.0      0.0      0.0   100     0.0     0.000    -9.9    0.000   -9.900      -9        0.00    0.000    0.000     207.9    175.7    0.47    89.2     187.3      68.5      47.7      36.5      18.6      18.3    0.000     0.000     0.000     0.000     0.000    0.47     0.00    0.00      0   -9.90   -9.00       35.9       16.8       16.4       16.8       16.6       16.4       16.3       16.3       16.2       16.2       16.1       16.1        0.0        0.0        0.0        0.0        0.0        0.0        0.0        0.0        0.0        0.0        0.0        0.0     18.7       0.4      -2.7      -2.2      -1.6    391.85
    16     1  2011    16     2     233.6    50.9      0.0    0.0   37.5   13.4     11.6      0.0   -9.90      0.2      0.2    100      0.0      0.0   100      0.2     0.2     100      0.0    0.48     -9     -9      0      0      0    10.0    10.0    100    -9.00      0.0      0.0      0.0   100     0.0     0.000    -9.9    0.000   -9.900      -9        0.00    0.000    0.000     233.6    201.0    0.48   114.3     192.3      70.3      48.6      37.2      19.1      18.8    0.000     0.000     0.000     0.000     0.000    0.48     0.00    0.00      0   -9.90   -9.00       42.9       33.7       17.0       17.9       17.3       17.0       16.8       16.6       16.5       16.4       16.3       16.3        0.0        0.0        0.0        0.0        0.0        0.0        0.0        0.0        0.0        0.0        0.0        0.0     50.9       0.2      -0.9       0.8       2.4    391.85
    17     1  2011    17     2     232.0    31.1      0.0    0.0   26.2    4.9     27.7      0.0   -9.90      0.1      0.1    100      0.0      0.0   100      0.1     0.1     100      0.0    0.49     -9     -9      0      0      0    10.0    10.0    100    -9.00      0.0      0.0      0.0   100     0.0     0.000    -9.9    0.000   -9.900      -9        0.00    0.000    0.000     232.0    198.1    0.49   107.8     197.1      72.0      49.7      38.0      19.6      19.3    0.000     0.000     0.000     0.000     0.000    0.49     0.00    0.00      0   -9.90   -9.00       43.0       19.6       17.0       20.1       19.1       18.5       18.0       17.7       17.4       17.2       17.0       16.9        0.0        0.0        0.0        0.0        0.0        0.0        0.0        0.0        0.0        0.0        0.0        0.0     31.1       0.1      -1.4       0.0       1.4    391.85
    18     1  2011    18     2     213.4    10.1      0.0    0.0    9.9    0.2     28.5      0.0   -9.90      0.0      0.0    100      0.0      0.0   100      0.0     0.0     100      0.0    0.50     -9     -9      0      0      0    10.0    10.0    100    -9.00      0.0      0.0      0.0   100     0.0     0.000    -9.9    0.000   -9.900      -9        0.00    0.000    0.000     213.4    179.5    0.50    92.2     201.8      73.8      50.7      38.8      20.1      19.8    0.000     0.000     0.000     0.000     0.000    0.50     0.00    0.00      0   -9.90   -9.00       27.9       16.6       17.2       19.0       18.4       18.0       17.7       17.5       17.3       17.1       17.0       16.9        0.0        0.0        0.0        0.0        0.0        0.0        0.0        0.0        0.0        0.0        0.0        0.0     10.1       0.0      -3.2      -2.2      -1.3    391.85
    19     1  2011    19     2     195.6     0.2      0.0    0.0    0.2    0.0     18.0      0.0   -9.90      0.0      0.0    100      0.0      0.0   100      0.0     0.0     100      0.0    0.51     -9     -9      0      0      0    10.0    10.0    100    -9.00      0.0      0.0      0.0   100     0.0     0.000    -9.9    0.000   -9.900      -9        0.00    0.000    0.000     195.6    162.6    0.51    81.1     206.5      75.5      51.8      39.7      20.5      20.2    0.000     0.000     0.000     0.000     0.000    0.51     0.00    0.00      0   -9.90   -9.00       17.0       17.0       16.6       17.2       17.0       16.9       16.8       16.7       16.7       16.6       16.5       16.5        0.0        0.0        0.0        0.0        0.0        0.0        0.0        0.0        0.0        0.0        0.0        0.0      0.2       0.0      -9.0      -6.0      -3.0    391.85
    20     1  2011    20     2     187.7     0.0      0.0    0.0    0.0    0.0      7.9      0.0   -9.90      0.0      0.0    100      0.0      0.0   100      0.0     0.0     100      0.0    0.52     -9     -9      0      0      0    10.0    10.0    100    -9.00      0.0      0.0      0.0   100     0.0     0.000    -9.9    0.000   -9.900      -9        0.00    0.000    0.000     187.7    155.5    0.52    78.5     211.1      77.1      53.0      40.6      21.0      20.7    0.000     0.000     0.000     0.000     0.000    0.52     0.00    0.00      0   -9.90   -9.00       16.0       16.0       16.0       16.2       16.2       16.2       16.2       16.2       16.1       16.1       16.1       16.1        0.0        0.0        0.0        0.0        0.0        0.0        0.0        0.0        0.0        0.0        0.0        0.0      0.0       0.0     -10.8      -7.0      -3.1    391.85
    21     1  2011    21     2     193.5     8.6      0.0    0.0    8.5    0.1      2.6      0.0   -9.90      0.1      0.1    100      0.0      0.0   100      0.1     0.1     100      0.0    0.53     -9     -9      0      0      0    10.0    10.0    100    -9.00      0.0      0.0      0.0   100     0.0     0.000    -9.9    0.000   -9.900      -9        0.00    0.000    0.000     193.5    161.7    0.53    87.6     215.6      78.8      54.3      41.6      21.5      21.1    0.000     0.000     0.000     0.000     0.000    0.53     0.00    0.00      0   -9.90   -9.00       25.4       15.8       15.8       15.9       15.9       15.9       15.9       15.9       15.9       15.9       15.9       15.9        0.0        0.0        0.0        0.0        0.0        0.0        0.0        0.0        0.0        0.0        0.0        0.0      8.6       0.1      -5.4      -2.7      -0.0    391.85
    22     1  2011    22     2     192.8     3.3      0.0    0.0    3.3    0.0      3.9      0.0   -9.90      0.1      0.1    100      0.0      0.0   100      0.1     0.1     100      0.0    0.54     -9     -9      0      0      0    10.0    10.0    100    -9.00      0.0      0.0      0.0   100     0.0     0.000    -9.9    0.000   -9.900      -9        0.00    0.000    0.000     192.8    160.9    0.54    87.3     220.0      80.4      55.4      42.5      21.9      21.6    0.000     0.000     0.000     0.000     0.000    0.54     0.00    0.00      0   -9.90   -9.00       20.0       16.8       16.4       16.7       16.4       16.4       16.2       16.1       16.1       16.0       16.0       16.0        0.0        0.0        0.0        0.0        0.0        0.0        0.0        0.0        0.0        0.0        0.0        0.0      3.3       0.1      -2.9      -0.9       1.1    391.85
    23     1  2011    23     2     188.5     0.3      0.0    0.0    0.3    0.0      4.7      0.0   -9.90      0.0      0.0    100      0.0      0.0   100      0.0     0.0     100      0.0    0.55     -9     -9      0      0      0    10.0    10.0    100    -9.00      0.0      0.0      0.0   100     0.0     0.000    -9.9    0.000   -9.900      -9        0.00    0.000    0.000     188.5    156.4    0.55    84.6     224.4      82.0      56.3      43.1      22.4      22.0    0.000     0.000     0.000     0.000     0.000    0.55     0.00    0.00      0   -9.90   -9.00       16.4       16.4       16.2       16.4       16.3       16.2       16.2       16.1       16.1       16.0       16.0       16.0        0.0        0.0        0.0        0.0        0.0        0.0        0.0        0.0        0.0        0.0        0.0        0.0      0.3       0.0      -1.0       0.2       1.3    391.85
    24     1  2011    24     2     195.8    10.6      0.0    0.0   10.4    0.2      2.9      0.0   -9.90      0.2      0.2    100      0.0      0.0   100      0.2     0.2     100      0.0    0.56     -9     -9      0      0      0    10.0    10.0    100    -9.00      0.0      0.0      0.0   100     0.0     0.000    -9.9    0.000   -9.900      -9        0.00    0.000    0.000     195.8    163.9    0.56    94.4     228.7      83.5      57.8      44.3      22.8      22.5    0.000     0.000     0.000     0.000     0.000    0.56     0.00    0.00      0   -9.90   -9.00       27.4       15.9       15.9       16.0       16.0       16.0       16.0       15.9       15.9       15.9       15.9       15.9        0.0        0.0        0.0        0.0        0.0        0.0        0.0        0.0        0.0        0.0        0.0        0.0     10.6       0.2      -1.0       0.1       1.2    391.85
    25     1  2011    25     2     190.9     0.0      0.0    0.0    0.0    0.0      4.8      0.0   -9.90      0.0      0.0    100      0.0      0.0   100      0.0     0.0     100      0.0    0.57     -9     -9      0      0      0    10.0    10.0    100    -9.00      0.0      0.0      0.0   100     0.0     0.000    -9.9    0.000   -9.900      -9        0.00    0.000    0.000     190.9    158.9    0.57    90.1     232.9      85.1      58.5      44.8      23.2      22.9    0.000     0.000     0.000     0.000     0.000    0.57     0.00    0.00      0   -9.90   -9.00       17.0       17.0       16.5       16.9       16.5       16.4       16.2       16.2       16.1       16.1       16.0       16.0        0.0        0.0        0.0        0.0        0.0        0.0        0.0        0.0        0.0        0.0        0.0        0.0      0.0       0.0      -9.4      -5.5      -1.7    391.85
    26     1  2011    26     2     187.2     0.5      0.0    0.0    0.5    0.0      4.2      0.0   -9.90      0.0      0.0    100      0.0      0.0   100      0.0     0.0     100      0.0    0.58     -9     -9      0      0      0    10.0    10.0    100    -9.00      0.0      0.0      0.0   100     0.0     0.000    -9.9    0.000   -9.900      -9        0.00    0.000    0.000     187.2    155.3    0.58    88.5     237.1      86.6      59.5      45.6      23.7      23.3    0.000     0.000     0.000     0.000     0.000    0.58     0.00    0.00      0   -9.90   -9.00       16.5       16.0       16.0       16.1       16.1       16.1       16.1       16.0       16.0       16.0       16.0       16.0        0.0        0.0        0.0        0.0        0.0        0.0        0.0        0.0        0.0        0.0        0.0        0.0      0.5       0.0     -11.3      -8.8      -6.2    391.85
    27     1  2011    27     2     185.1     0.0      0.0    0.0    0.0    0.0      2.1      0.0   -9.90      0.0      0.0    100      0.0      0.0   100      0.0     0.0     100      0.0    0.59     -9     -9      0      0      0    10.0    10.0    100    -9.00      0.0      0.0      0.0   100     0.0     0.000    -9.9    0.000   -9.900      -9        0.00    0.000    0.000     185.1    153.4    0.59    88.6     241.2      88.1      60.6      46.4      24.1      23.7    0.000     0.000     0.000     0.000     0.000    0.59     0.00    0.00      0   -9.90   -9.00       15.9       15.9       15.9       15.9       15.9       15.9       15.9       15.9       15.9       15.9       15.9       15.9        0.0        0.0        0.0        0.0        0.0        0.0        0.0        0.0        0.0        0.0        0.0        0.0      0.0       0.0     -12.0      -9.6      -7.2    391.85
    28     1  2011    28     2     185.7     1.4      0.0    0.0    1.4    0.0      0.8      0.0   -9.90      0.1      0.1    100      0.0      0.0   100      0.1     0.1     100      0.0    0.60     -9     -9      0      0      0    10.0    10.0    100    -9.00      0.0      0.0      0.0   100     0.0     0.000    -9.9    0.000   -9.900      -9        0.00    0.000    0.000     185.7    154.0    0.60    91.0     245.3      89.6      61.8      47.4      24.5      24.2    0.000     0.000     0.000     0.000     0.000    0.60     0.00    0.00      0   -9.90   -9.00       17.3       15.8       15.8       15.8       15.8       15.8       15.8       15.8       15.8       15.8       15.8       15.8        0.0        0.0        0.0        0.0        0.0        0.0        0.0        0.0        0.0        0.0        0.0        0.0      1.4       0.1      -9.6      -6.3      -3.0    391.85
    29     1  2011    29     2     193.7     8.9      0.0    0.0    8.8    0.1      0.7      0.0   -9.90      0.1      0.1    100      0.0      0.0   100      0.1     0.1     100      0.0    0.61     -9     -9      0      0      0    10.0    10.0    100    -9.00      0.0      0.0      0.0   100     0.0     0.000    -9.9    0.000   -9.900      -9        0.00    0.000    0.000     193.7    162.0    0.61   100.5     249.3      91.1      62.8      48.2      25.0      24.6    0.000     0.000     0.000     0.000     0.000    0.61     0.00    0.00      0   -9.90   -9.00       25.9       16.0       15.9       15.9       15.9       15.9       15.9       15.8       15.8       15.8       15.8       15.8        0.0        0.0        0.0        0.0        0.0        0.0        0.0        0.0        0.0        0.0        0.0        0.0      8.9       0.1      -7.2      -4.0      -0.9    391.85
    30     1  2011    30     2     194.0     4.1      0.0    0.0    4.1    0.0      3.8      0.0   -9.90      0.1      0.1    100      0.0      0.0   100      0.1     0.1     100      0.0    0.62     -9     -9      0      0      0    10.0    10.0    100    -9.00      0.0      0.0      0.0   100     0.0     0.000    -9.9    0.000   -9.900      -9        0.00    0.000    0.000     194.0    162.0    0.62   100.9     253.3      92.5      63.9      48.9      25.4      25.0    0.000     0.000     0.000     0.000     0.000    0.62     0.00    0.00      0   -9.90   -9.00       21.1       16.9       16.4       16.8       16.4       16.3       16.2       16.1       16.1       16.0       16.0       16.0        0.0        0.0        0.0        0.0        0.0        0.0        0.0        0.0        0.0        0.0        0.0        0.0      4.1       0.1      -8.3      -5.2      -2.1    391.85
    31     1  2011    31     2     206.6    19.3      0.0    0.0   17.7    1.6      5.0      0.0   -9.90      0.1      0.1    100      0.0      0.0   100      0.1     0.1     100      0.0    0.63     -9     -9      0      0      0    10.0    10.0    100    -9.00      0.0      0.0      0.0   100     0.0     0.000    -9.9    0.000   -9.900      -9        0.00    0.000    0.000     206.6    174.6    0.63   115.0     257.2      93.9      64.8      49.7      25.8      25.4    0.000     0.000     0.000     0.000     0.000    0.63     0.00    0.00      0   -9.90   -9.00       36.5       16.5       16.2       16.5       16.3       16.2       16.2       16.1       16.1       16.1       16.0       16.0        0.0        0.0        0.0        0.0        0.0        0.0        0.0        0.0        0.0        0.0        0.0        0.0     19.3       0.1      -2.1      -0.6       0.9    391.85
     1     2  2011    32     2     217.4    24.6      0.0    0.0   21.7    2.9     10.9      0.0   -9.90      0.1      0.1    100      0.0      0.0   100      0.1     0.1     100      0.0    0.64     -9     -9      0      0      0    10.0    10.0    100    -9.00      0.0      0.0      0.0   100     0.0     0.000    -9.9    0.000   -9.900      -9        0.00    0.000    0.000     217.4    184.8    0.64   125.2     261.1      95.4      65.8      50.5      26.2      25.8    0.000     0.000     0.000     0.000     0.000    0.64     0.00    0.00      0   -9.90   -9.00       41.3       17.1       17.0       17.9       17.3       17.0       16.7       16.6       16.5       16.4       16.3       16.2        0.0        0.0        0.0        0.0        0.0        0.0        0.0        0.0        0.0        0.0        0.0        0.0     24.6       0.1      -0.6       0.5       1.6    391.85
     2     2  2011    33     2     218.4    20.9      0.0    0.0   19.0    1.9     17.7      0.0   -9.90      0.2      0.2    100      0.0      0.0   100      0.2     0.2     100      0.0    0.65     -9     -9      0      0      0    10.0    10.0    100    -9.00      0.0      0.0      0.0   100     0.0     0.000    -9.9    0.000   -9.900      -9        0.00    0.000    0.000     218.4    185.3    0.65   125.8     265.0      96.8      67.1      51.4      26.6      26.2    0.000     0.000     0.000     0.000     0.000    0.65     0.00    0.00      0   -9.90   -9.00       38.1       16.8       17.1       18.6       17.9       17.5       17.2       17.0       16.8       16.7       16.6       16.5        0.0        0.0        0.0        0.0        0.0        0.0        0.0        0.0        0.0        0.0        0.0        0.0     20.9       0.2      -0.4       0.4       1.2    391.85
     3     2  2011    34     2     216.3    18.5      0.0    0.0   17.1    1.4     19.1      0.0   -9.90      0.2      0.2    100      0.0      0.0   100      0.2     0.2     100      0.0    0.66     -9     -9      0      0      0    10.0    10.0    100    -9.00      0.0      0.0      0.0   100     0.0     0.000    -9.9    0.000   -9.900      -9        0.00    0.000    0.000     216.3    183.1    0.66   125.1     268.8      98.2      68.0      52.2      27.0      26.5    0.000     0.000     0.000     0.000     0.000    0.66     0.00    0.00      0   -9.90   -9.00       36.2       17.0       17.0       18.2       17.7       17.4       17.2       17.0       16.8       16.7       16.6       16.6        0.0        0.0        0.0        0.0        0.0        0.0        0.0        0.0        0.0        0.0        0.0        0.0     18.5       0.2      -2.0      -0.9       0.1    391.85
     4     2  2011    35     2     219.4    24.3      0.0    0.0   21.5    2.8     18.1      0.0   -9.90      0.3      0.3    100      0.0      0.0   100      0.3     0.3     100      0.0    0.67     -9     -9      0      0      0    10.0    10.0    100    -9.00      0.0      0.0      0.0   100     0.0     0.000    -9.9    0.000   -9.900      -9        0.00    0.000    0.000     219.4    186.3    0.67   130.1     272.6      99.5      69.2      53.1      27.4      26.9    0.000     0.000     0.000     0.000     0.000    0.67     0.00    0.00      0   -9.90   -9.00       40.9       17.1       17.0       18.1       17.6       17.3       17.0       16.9       16.8       16.7       16.6       16.5        0.0        0.0        0.0        0.0        0.0        0.0        0.0        0.0        0.0        0.0        0.0        0.0     24.3       0.3      -1.9      -1.0      -0.1    391.85
     5     2  2011    36     2     218.2    20.3      0.0    0.0   18.5    1.8     19.5      0.0   -9.90      0.2      0.2    100      0.0      0.0   100      0.2     0.2     100      0.0    0.67     -9     -9      0      0      0    10.0    10.0    100    -9.00      0.0      0.0      0.0   100     0.0     0.000    -9.9    0.000   -9.900      -9        0.00    0.000    0.000     218.2    185.0    0.67   129.8     276.4     100.9      69.9      53.6      27.8      27.3    0.000     0.000     0.000     0.000     0.000    0.67     0.00    0.00      0   -9.90   -9.00       37.6       16.8       17.1       18.6       17.9       17.5       17.2       17.0       16.9       16.8       16.7       16.6        0.0        0.0        0.0        0.0        0.0        0.0        0.0        0.0        0.0        0.0        0.0        0.0     20.3       0.2      -1.9      -1.4      -0.9    391.85
     6     2  2011    37     2     213.3    15.1      0.0    0.0   14.3    0.8     19.1      0.0   -9.90      0.2      0.2    100      0.0      0.0   100      0.2     0.2     100      0.0    0.68     -9     -9      0      0      0    10.0    10.0    100    -9.00      0.0      0.0      0.0   100     0.0     0.000    -9.9    0.000   -9.900      -9        0.00    0.000    0.000     213.3    180.1    0.68   126.6     280.1     102.2      70.9      54.4      28.1      27.7    0.000     0.000     0.000     0.000     0.000    0.68     0.00    0.00      0   -9.90   -9.00       33.1       17.1       17.0       18.2       17.7       17.4       17.1       17.0       16.8       16.7       16.6       16.6        0.0        0.0        0.0        0.0        0.0        0.0        0.0        0.0        0.0        0.0        0.0        0.0     15.1       0.2      -1.0      -0.3       0.4    391.85
     7     2  2011    38     2     207.0    10.4      0.0    0.0   10.2    0.2     16.3      0.0   -9.90      0.2      0.2    100      0.0      0.0   100      0.2     0.2     100      0.0    0.69     -9     -9      0      0      0    10.0    10.0    100    -9.00      0.0      0.0      0.0   100     0.0     0.000    -9.9    0.000   -9.900      -9        0.00    0.000    0.000     207.0    174.1    0.69   122.6     283.7     103.6      71.8      55.1      28.5      28.1    0.000     0.000     0.000     0.000     0.000    0.69     0.00    0.00      0   -9.90   -9.00       28.4       17.2       16.9       17.7       17.3       17.1       16.9       16.8       16.7       16.6       16.5       16.4        0.0        0.0        0.0        0.0        0.0        0.0        0.0        0.0        0.0        0.0        0.0        0.0     10.4       0.2      -1.1      -0.4       0.3    391.85
     8     2  2011    39     2     205.0    10.9      0.0    0.0   10.6    0.3     12.6      0.0   -9.90      0.1      0.1    100      0.0      0.0   100      0.1     0.1     100      0.0    0.70     -9     -9      0      0      0    10.0    10.0    100    -9.00      0.0      0.0      0.0   100     0.0     0.000    -9.9    0.000   -9.900      -9        0.00    0.000    0.000     205.0    172.4    0.70   122.9     287.4     104.9      72.5      55.6      28.9      28.4    0.000     0.000     0.000     0.000     0.000    0.70     0.00    0.00      0   -9.90   -9.00       29.0       17.1       16.6       17.2       17.0       16.8       16.6       16.5       16.5       16.4       16.3       16.3        0.0        0.0        0.0        0.0        0.0        0.0        0.0        0.0        0.0        0.0        0.0        0.0     10.9       0.1      -2.3      -1.3      -0.3    391.85
     9     2  2011    40     2     196.4     2.8      0.0    0.0    2.8    0.0     11.2      0.0   -9.90      0.2      0.2    100      0.0      0.0   100      0.2     0.2     100      0.0    0.71     -9     -9      0      0      0    10.0    10.0    100    -9.00      0.0      0.0      0.0   100     0.0     0.000    -9.9    0.000   -9.900      -9        0.00    0.000    0.000     196.4    163.8    0.71   115.8     291.0     106.2      73.6      56.5      29.3      28.8    0.000     0.000     0.000     0.000     0.000    0.71     0.00    0.00      0   -9.90   -9.00       19.3       17.1       16.7       17.3       16.9       16.7       16.7       16.5       16.5       16.4       16.3       16.3        0.0        0.0        0.0        0.0        0.0        0.0        0.0        0.0        0.0        0.0        0.0        0.0      2.8       0.2      -6.4      -4.5      -2.5    391.85
    10     2  2011    41     2     206.9    20.0      0.0    0.0   18.3    1.7      7.5      0.0   -9.90      0.3      0.3    100      0.0      0.0   100      0.3     0.3     100      0.0    0.72     -9     -9      0      0      0    10.0    10.0    100    -9.00      0.0      0.0      0.0   100     0.0     0.000    -9.9    0.000   -9.900      -9        0.00    0.000    0.000     206.9    174.7    0.72   128.8     294.6     107.5      74.8      57.4      29.7      29.2    0.000     0.000     0.000     0.000     0.000    0.72     0.00    0.00      0   -9.90   -9.00       36.7       16.3       16.1       16.4       16.3       16.3       16.2       16.2       16.2       16.1       16.1       16.1        0.0        0.0        0.0        0.0        0.0        0.0        0.0        0.0        0.0        0.0        0.0        0.0     20.0       0.3      -2.1      -0.7       0.8    391.85
    11     2  2011    42     2     195.8     0.1      0.0    0.0    0.1    0.0     11.1      0.0   -9.90      0.2      0.2    100      0.0      0.0   100      0.2     0.2     100      0.0    0.72     -9     -9      0      0      0    10.0    10.0    100    -9.00      0.0      0.0      0.0   100     0.0     0.000    -9.9    0.000   -9.900      -9        0.00    0.000    0.000     195.8    163.3    0.72   117.9     298.1     108.8      75.5      57.9      30.0      29.5    0.000     0.000     0.000     0.000     0.000    0.72     0.00    0.00      0   -9.90   -9.00       16.9       17.1       17.0       17.9       17.3       16.9       16.7       16.6       16.5       16.4       16.3       16.3        0.0        0.0        0.0        0.0        0.0        0.0        0.0        0.0        0.0        0.0        0.0        0.0      0.1       0.2     -11.1      -5.8      -0.4    391.85
    12     2  2011    43     2     188.1     0.0      0.0    0.0    0.0    0.0      7.5      0.0   -9.90      0.3      0.2     74      0.0      0.0   100      0.3     0.2      74      0.0    0.73     -9     -9      0      0      0    10.0    10.0    100    -9.00      0.0      0.0      0.0   100     0.0     0.000    -9.9    0.000   -9.900      -9        0.00    0.000    0.000     188.1    155.8    0.73   112.5     301.7     110.1      76.6      58.8      30.4      29.9    0.000     0.000     0.000     0.000     0.000    0.73     0.00    0.00      0   -9.90   -9.00       15.7       16.0       16.0       16.5       16.3       16.3       16.2       16.2       16.2       16.1       16.1       16.1        0.0        0.0        0.0        0.0        0.0        0.0        0.0        0.0        0.0        0.0        0.0        0.0      0.0       0.3     -14.7     -11.3      -8.0    391.85
    13     2  2011    44     2     184.8     0.2      0.0    0.0    0.2    0.0      2.9      0.0   -9.90      0.6      0.6     97      0.0      0.0   100      0.6     0.6      97      0.0    0.74     -9     -9      0      0      0    10.0    10.0    100    -9.00      0.0      0.0      0.0   100     0.0     0.000    -9.9    0.000   -9.900      -9        0.00    0.000    0.000     184.8    153.0    0.74   111.6     305.2     111.4      78.7      60.5      30.8      30.2    0.000     0.000     0.000     0.000     0.000    0.74     0.00    0.00      0   -9.90   -9.00       15.3       15.8       15.8       16.0       15.9       15.9       15.9       15.9       15.9       15.9       15.9       15.9        0.0        0.0        0.0        0.0        0.0        0.0        0.0        0.0        0.0        0.0        0.0        0.0      0.2       0.7     -10.3      -7.2      -4.0    391.85
    14     2  2011    45     2     185.5     2.2      0.0    0.0    2.2    0.0      0.9      0.0   -9.90      0.6      0.6    100      0.0      0.0   100      0.6     0.6     100      0.0    0.75     -9     -9      0      0      0    10.0    10.0    100    -9.00      0.0      0.0      0.0   100     0.0     0.000    -9.9    0.000   -9.900      -9        0.00    0.000    0.000     185.5    153.8    0.75   114.0     308.6     112.7      79.6      61.2      31.2      30.6    0.000     0.000     0.000     0.000     0.000    0.75     0.00    0.00      0   -9.90   -9.00       17.0       15.8       15.8       15.9       15.8       15.8       15.8       15.8       15.8       15.8       15.8       15.8        0.0        0.0        0.0        0.0        0.0        0.0        0.0        0.0        0.0        0.0        0.0        0.0      2.2       0.7      -7.6      -6.1      -4.6    391.85
    15     2  2011    46     2     188.3     3.9      0.0    0.0    3.9    0.0      0.6      0.0   -9.90      0.5      0.5    100      0.0      0.0   100      0.5     0.5     100      0.0    0.76     -9     -9      0      0      0    10.0    10.0    100    -9.00      0.0      0.0      0.0   100     0.0     0.000    -9.9    0.000   -9.900      -9        0.00    0.000    0.000     188.3    156.6    0.76   118.1     312.1     113.9      79.9      61.4      31.5      30.9    0.000     0.000     0.000     0.000     0.000    0.76     0.00    0.00      0   -9.90   -9.00       19.9       16.0       15.9       15.9       15.9       15.9       15.8       15.8       15.8       15.8       15.8       15.8        0.0        0.0        0.0        0.0        0.0        0.0        0.0        0.0        0.0        0.0        0.0        0.0      3.9       0.5      -8.1      -7.7      -7.3    391.85
    16     2  2011    47     2     187.6     1.4      0.0    0.0    1.4    0.0      1.7      0.0   -9.90      0.5      0.5    100      0.0      0.0   100      0.5     0.5     100      0.0    0.76     -9     -9      0      0      0    10.0    10.0    100    -9.00      0.0      0.0      0.0   100     0.0     0.000    -9.9    0.000   -9.900      -9        0.00    0.000    0.000     187.6    155.8    0.76   118.3     315.5     115.2      80.8      62.0      31.9      31.3    0.000     0.000     0.000     0.000     0.000    0.76     0.00    0.00      0   -9.90   -9.00       17.2       16.3       16.1       16.2       16.1       16.1       16.0       15.9       15.9       15.9       15.9       15.9        0.0        0.0        0.0        0.0        0.0        0.0        0.0        0.0        0.0        0.0        0.0        0.0      1.4       0.5      -7.3      -6.6      -5.9    391.85
    17     2  2011    48     2     185.8     0.5      0.0    0.0    0.5    0.0      2.0      0.0   -9.90      0.4      0.4    100      0.0      0.0   100      0.4     0.4     100      0.0    0.77     -9     -9      0      0      0    10.0    10.0    100    -9.00      0.0      0.0      0.0   100     0.0     0.000    -9.9    0.000   -9.900      -9        0.00    0.000    0.000     185.8    154.0    0.77   117.7     318.9     116.4      81.3      62.5      32.2      31.6    0.000     0.000     0.000     0.000     0.000    0.77     0.00    0.00      0   -9.90   -9.00       16.1       16.0       15.9       16.0       16.0       16.0       15.9       15.9       15.9       15.9       15.9       15.9        0.0        0.0        0.0        0.0        0.0        0.0        0.0        0.0        0.0        0.0        0.0        0.0      0.5       0.4      -7.6      -5.9      -4.2    391.85
    18     2  2011    49     2     184.5     0.0      0.0    0.0    0.0    0.0      1.1      0.0   -9.90      0.1      0.1    100      0.0      0.0   100      0.1     0.1     100      0.0    0.78     -9     -9      0      0      0    10.0    10.0    100    -9.00      0.0      0.0      0.0   100     0.0     0.000    -9.9    0.000   -9.900      -9        0.00    0.000    0.000     184.5    152.9    0.78   117.9     322.3     117.6      81.3      62.4      32.5      32.0    0.000     0.000     0.000     0.000     0.000    0.78     0.00    0.00      0   -9.90   -9.00       15.7       15.8       15.8       15.9       15.9       15.9       15.9       15.9       15.9       15.9       15.8       15.8        0.0        0.0        0.0        0.0        0.0        0.0        0.0        0.0        0.0        0.0        0.0        0.0      0.0       0.1     -12.3      -9.1      -5.8    391.85
    19     2  2011    50     2     184.0     0.0      0.0    0.0    0.0    0.0      0.4      0.0   -9.90      0.2      0.2     98      0.0      0.0   100      0.2     0.2      98      0.0    0.79     -9     -9      0      0      0    10.0    10.0    100    -9.00      0.0      0.0      0.0   100     0.0     0.000    -9.9    0.000   -9.900      -9        0.00    0.000    0.000     184.0    152.3    0.79   118.7     325.6     118.8      82.4      63.3      32.8      32.3    0.000     0.000     0.000     0.000     0.000    0.79     0.00    0.00      0   -9.90   -9.00       15.5       15.8       15.8       15.8       15.8       15.8       15.8       15.8       15.8       15.8       15.8       15.8        0.0        0.0        0.0        0.0        0.0        0.0        0.0        0.0        0.0        0.0        0.0        0.0      0.0       0.2     -15.1     -12.1      -9.2    391.85
    20     2  2011    51     2     183.7     0.0      0.0    0.0    0.0    0.0      0.1      0.0   -9.90      0.2      0.2     95      0.0      0.0   100      0.2     0.2      95      0.0    0.80     -9     -9      0      0      0    10.0    10.0    100    -9.00      0.0      0.0      0.0   100     0.0     0.000    -9.9    0.000   -9.900      -9        0.00    0.000    0.000     183.7    152.1    0.80   119.7     329.0     120.1      83.3      63.9      33.2      32.6    0.000     0.000     0.000     0.000     0.000    0.80     0.00    0.00      0   -9.90   -9.00       15.3       15.8       15.8       15.8       15.8       15.8       15.8       15.8       15.8       15.8       15.8       15.8        0.0        0.0        0.0        0.0        0.0        0.0        0.0        0.0        0.0        0.0        0.0        0.0      0.0       0.2     -15.2     -12.2      -9.2    391.85
    21     2  2011    52     2     183.5     0.0      0.0    0.0    0.0    0.0      0.0      0.0   -9.90      0.2      0.2     91      0.0      0.0   100      0.2     0.2      91      0.0    0.80     -9     -9      0      0      0    10.0    10.0    100    -9.00      0.0      0.0      0.0   100     0.0     0.000    -9.9    0.000   -9.900      -9        0.00    0.000    0.000     183.5    151.9    0.80   120.7     332.3     121.3      84.1      64.6      33.5      33.0    0.000     0.000     0.000     0.000     0.000    0.80     0.00    0.00      0   -9.90   -9.00       15.2       15.8       15.8       15.8       15.8       15.8       15.8       15.8       15.8       15.8       15.8       15.8        0.0        0.0        0.0        0.0        0.0        0.0        0.0        0.0        0.0        0.0        0.0        0.0      0.0       0.2     -16.7     -13.1      -9.6    391.85
    22     2  2011    53     2     183.3     0.0      0.0    0.0    0.0    0.0      0.0      0.0   -9.90      0.2      0.2     88      0.0      0.0   100      0.2     0.2      88      0.0    0.81     -9     -9      0      0      0    10.0    10.0    100    -9.00      0.0      0.0      0.0   100     0.0     0.000    -9.9    0.000   -9.900      -9        0.00    0.000    0.000     183.3    151.7    0.81   121.7     335.6     122.5      84.9      65.2      33.9      33.3    0.000     0.000     0.000     0.000     0.000    0.81     0.00    0.00      0   -9.90   -9.00       15.0       15.8       15.8       15.8       15.8       15.8       15.8       15.8       15.8       15.8       15.8       15.8        0.0        0.0        0.0        0.0        0.0        0.0        0.0        0.0        0.0        0.0        0.0        0.0      0.0       0.2     -14.1     -11.6      -9.1    391.85
    23     2  2011    54     2     183.5     0.5      0.0    0.0    0.5    0.0      0.0      0.0   -9.90      0.3      0.3    100      0.0      0.0   100      0.3     0.3     100      0.0    0.82     -9     -9      0      0      0    10.0    10.0    100    -9.00      0.0      0.0      0.0   100     0.0     0.000    -9.9    0.000   -9.900      -9        0.00    0.000    0.000     183.5    151.9    0.82   123.1     338.8     123.6      86.1      66.1      34.2      33.6    0.000     0.000     0.000     0.000     0.000    0.82     0.00    0.00      0   -9.90   -9.00       15.2       15.8       15.8       15.8       15.8       15.8       15.8       15.8       15.8       15.8       15.8       15.8        0.0        0.0        0.0        0.0        0.0        0.0        0.0        0.0        0.0        0.0        0.0        0.0      0.5       0.3     -15.0     -11.2      -7.4    391.85
    24     2  2011    55     2     191.7     8.7      0.0    0.0    8.6    0.1      0.0      0.0   -9.90      0.5      0.5    100      0.0      0.0   100      0.5     0.5     100      0.0    0.83     -9     -9      0      0      0    10.0    10.0    100    -9.00      0.0      0.0      0.0   100     0.0     0.000    -9.9    0.000   -9.900      -9        0.00    0.000    0.000     191.7    160.1    0.83   132.5     342.1     124.8      87.6      67.3      34.6      34.0    0.000     0.000     0.000     0.000     0.000    0.83     0.00    0.00      0   -9.90   -9.00       24.5       15.8       15.8       15.8       15.8       15.8       15.8       15.8       15.8       15.8       15.8       15.8        0.0        0.0        0.0        0.0        0.0        0.0        0.0        0.0        0.0        0.0        0.0        0.0      8.7       0.5      -6.4      -4.2      -1.9    391.85
    25     2  2011    56     2     195.6     6.9      0.0    0.0    6.9    0.0      2.7      0.0   -9.90      0.4      0.4    100      0.0      0.0   100      0.4     0.4     100      0.0    0.83     -9     -9      0      0      0    10.0    10.0    100    -9.00      0.0      0.0      0.0   100     0.0     0.000    -9.9    0.000   -9.900      -9        0.00    0.000    0.000     195.6    163.7    0.83   137.0     345.3     126.0      88.1      67.7      34.9      34.3    0.000     0.000     0.000     0.000     0.000    0.83     0.00    0.00      0   -9.90   -9.00       24.2       16.7       16.3       16.6       16.3       16.2       16.1       16.0       16.0       16.0       15.9       15.9        0.0        0.0        0.0        0.0        0.0        0.0        0.0        0.0        0.0        0.0        0.0        0.0      6.9       0.4      -0.4       1.2       2.8    391.85
    26     2  2011    57     2     199.7     9.8      0.0    0.0    9.6    0.2      5.2      0.0   -9.90      0.3      0.3    100      0.0      0.0   100      0.3     0.3     100      0.0    0.84     -9     -9      0      0      0    10.0    10.0    100    -9.00      0.0      0.0      0.0   100     0.0     0.000    -9.9    0.000   -9.900      -9        0.00    0.000    0.000     199.7    167.7    0.84   142.0     348.5     127.2      88.6      68.0      35.2      34.6    0.000     0.000     0.000     0.000     0.000    0.84     0.00    0.00      0   -9.90   -9.00       27.4       16.8       16.4       16.7       16.5       16.3       16.2       16.2       16.1       16.1       16.0       16.0        0.0        0.0        0.0        0.0        0.0        0.0        0.0        0.0        0.0        0.0        0.0        0.0      9.8       0.3      -0.1       1.2       2.5    391.85
    27     2  2011    58     2     197.4     5.5      0.0    0.0    5.5    0.0      7.6      0.0   -9.90      0.3      0.3    100      0.0      0.0   100      0.3     0.3     100      0.0    0.85     -9     -9      0      0      0    10.0    10.0    100    -9.00      0.0      0.0      0.0   100     0.0     0.000    -9.9    0.000   -9.900      -9        0.00    0.000    0.000     197.4    165.1    0.85   140.3     351.7     128.3      89.4      68.6      35.5      34.9    0.000     0.000     0.000     0.000     0.000    0.85     0.00    0.00      0   -9.90   -9.00       22.6       17.0       16.6       17.1       16.7       16.5       16.4       16.3       16.2       16.2       16.2       16.1        0.0        0.0        0.0        0.0        0.0        0.0        0.0        0.0        0.0        0.0        0.0        0.0      5.5       0.3      -2.5      -1.1       0.4    391.85
    28     2  2011    59     2     190.2     0.0      0.0    0.0    0.0    0.0      7.0      0.0   -9.90      0.2      0.2    100      0.0      0.0   100      0.2     0.2     100      0.0    0.85     -9     -9      0      0      0    10.0    10.0    100    -9.00      0.0      0.0      0.0   100     0.0     0.000    -9.9    0.000   -9.900      -9        0.00    0.000    0.000     190.2    158.0    0.85   134.5     354.9     129.5      89.8      69.0      35.8      35.3    0.000     0.000     0.000     0.000     0.000    0.85     0.00    0.00      0   -9.90   -9.00       16.5       16.7       16.3       16.6       16.5       16.4       16.3       16.2       16.2       16.1       16.1       16.1        0.0        0.0        0.0        0.0        0.0        0.0        0.0        0.0        0.0        0.0        0.0        0.0      0.0       0.2      -5.0      -2.2       0.6    391.85
     1     3  2011    60     2     185.9     0.0      0.0    0.0    0.0    0.0      4.0      0.0   -9.90      0.3      0.3    100      0.0      0.0   100      0.3     0.3     100      0.0    0.86     -9     -9      0      0      0    10.0    10.0    100    -9.00      0.0      0.0      0.0   100     0.0     0.000    -9.9    0.000   -9.900      -9        0.00    0.000    0.000     185.9    154.0    0.86   131.9     358.0     130.6      91.0      69.9      36.2      35.6    0.000     0.000     0.000     0.000     0.000    0.86     0.00    0.00      0   -9.90   -9.00       15.6       15.9       15.9       16.1       16.0       16.0       16.0       16.0       16.0       16.0       16.0       16.0        0.0        0.0        0.0        0.0        0.0        0.0        0.0        0.0        0.0        0.0        0.0        0.0      0.0       0.3      -6.0      -3.2      -0.4    391.85
     2     3  2011    61     2     184.2     0.0      0.0    0.0    0.0    0.0      1.4      0.0   -9.90      0.3      0.3    100      0.0      0.0   100      0.3     0.3     100      0.0    0.87     -9     -9      0      0      0    10.0    10.0    100    -9.00      0.0      0.0      0.0   100     0.0     0.000    -9.9    0.000   -9.900      -9        0.00    0.000    0.000     184.2    152.5    0.87   131.8     361.2     131.8      91.8      70.5      36.5      35.9    0.000     0.000     0.000     0.000     0.000    0.87     0.00    0.00      0   -9.90   -9.00       15.3       15.8       15.8       15.9       15.9       15.9       15.9       15.9       15.9       15.9       15.9       15.9        0.0        0.0        0.0        0.0        0.0        0.0        0.0        0.0        0.0        0.0        0.0        0.0      0.0       0.3      -5.2      -1.6       2.0    391.85
     3     3  2011    62     2     183.5     0.0      0.0    0.0    0.0    0.0      0.4      0.0   -9.90      0.3      0.3    100      0.0      0.0   100      0.3     0.3     100      0.0    0.88     -9     -9      0      0      0    10.0    10.0    100    -9.00      0.0      0.0      0.0   100     0.0     0.000    -9.9    0.000   -9.900      -9        0.00    0.000    0.000     183.5    151.8    0.88   132.3     364.3     132.9      92.6      71.1      36.8      36.2    0.000     0.000     0.000     0.000     0.000    0.88     0.00    0.00      0   -9.90   -9.00       15.0       15.8       15.8       15.8       15.8       15.8       15.8       15.8       15.8       15.8       15.8       15.8        0.0        0.0        0.0        0.0        0.0        0.0        0.0        0.0        0.0        0.0        0.0        0.0      0.0       0.3      -3.4      -0.8       1.8    391.85
     4     3  2011    63     2     189.1     6.0      0.0    0.0    6.0    0.0      0.1      0.0   -9.90      0.3      0.3    100      0.0      0.0   100      0.3     0.3     100      0.0    0.88     -9     -9      0      0      0    10.0    10.0    100    -9.00      0.0      0.0      0.0   100     0.0     0.000    -9.9    0.000   -9.900      -9        0.00    0.000    0.000     189.1    157.5    0.88   139.1     367.4     134.0      93.4      71.7      37.2      36.5    0.000     0.000     0.000     0.000     0.000    0.88     0.00    0.00      0   -9.90   -9.00       21.5       15.8       15.8       15.8       15.8       15.8       15.8       15.8       15.8       15.8       15.8       15.8        0.0        0.0        0.0        0.0        0.0        0.0        0.0        0.0        0.0        0.0        0.0        0.0      6.0       0.3      -4.6      -1.3       1.9    391.85
     5     3  2011    64     2     186.9     0.0      0.0    0.0    0.0    0.0      1.7      0.0   -9.90      0.5      0.5    100      0.0      0.0   100      0.5     0.5     100      0.0    0.89     -9     -9      0      0      0    10.0    10.0    100    -9.00      0.0      0.0      0.0   100     0.0     0.000    -9.9    0.000   -9.900      -9        0.00    0.000    0.000     186.9    155.2    0.89   137.8     370.5     135.2      94.8      72.9      37.5      36.8    0.000     0.000     0.000     0.000     0.000    0.89     0.00    0.00      0   -9.90   -9.00       16.0       16.5       16.2       16.3       16.1       16.0       16.0       15.9       15.9       15.9       15.9       15.9        0.0        0.0        0.0        0.0        0.0        0.0        0.0        0.0        0.0        0.0        0.0        0.0      0.0       0.5      -6.7      -3.1       0.4    391.85
     6     3  2011    65     2     184.8     0.0      0.0    0.0    0.0    0.0      1.7      0.0   -9.90      0.4      0.4    100      0.0      0.0   100      0.4     0.4     100      0.0    0.90     -9     -9      0      0      0    10.0    10.0    100    -9.00      0.0      0.0      0.0   100     0.0     0.000    -9.9    0.000   -9.900      -9        0.00    0.000    0.000     184.8    153.1    0.90   136.9     373.6     136.3      95.3      73.2      37.8      37.2    0.000     0.000     0.000     0.000     0.000    0.90     0.00    0.00      0   -9.90   -9.00       15.4       15.9       15.9       16.0       15.9       15.9       15.9       15.9       15.9       15.9       15.9       15.9        0.0        0.0        0.0        0.0        0.0        0.0        0.0        0.0        0.0        0.0        0.0        0.0      0.0       0.4     -11.8      -6.7      -1.5    391.85
     7     3  2011    66     2     193.6    10.1      0.0    0.0    9.9    0.2      0.8      0.0   -9.90      0.4      0.4    100      0.0      0.0   100      0.4     0.4     100      0.0    0.90     -9     -9      0      0      0    10.0    10.0    100    -9.00      0.0      0.0      0.0   100     0.0     0.000    -9.9    0.000   -9.900      -9        0.00    0.000    0.000     193.6    162.0    0.90   146.9     376.6     137.4      96.1      73.8      38.1      37.5    0.000     0.000     0.000     0.000     0.000    0.90     0.00    0.00      0   -9.90   -9.00       26.3       15.8       15.8       15.8       15.8       15.8       15.8       15.8       15.8       15.8       15.8       15.8        0.0        0.0        0.0        0.0        0.0        0.0        0.0        0.0        0.0        0.0        0.0        0.0     10.1       0.4      -4.2      -2.1      -0.0    391.85
     8     3  2011    67     2     203.1    14.1      0.0    0.0   13.5    0.6      3.6      0.0   -9.90      0.5      0.5    100      0.0      0.0   100      0.5     0.5     100      0.0    0.91     -9     -9      0      0      0    10.0    10.0    100    -9.00      0.0      0.0      0.0   100     0.0     0.000    -9.9    0.000   -9.900      -9        0.00    0.000    0.000     203.1    171.1    0.91   157.0     379.6     138.5      97.2      74.7      38.5      37.8    0.000     0.000     0.000     0.000     0.000    0.91     0.00    0.00      0   -9.90   -9.00       31.7       16.9       16.4       16.8       16.4       16.3       16.2       16.1       16.0       16.0       16.0       16.0        0.0        0.0        0.0        0.0        0.0        0.0        0.0        0.0        0.0        0.0        0.0        0.0     14.1       0.5      -2.1      -0.6       1.0    391.85
     9     3  2011    68     2     214.4    23.1      0.0    0.0   20.6    2.5      8.9      0.0   -9.90      0.4      0.4    100      0.0      0.0   100      0.4     0.4     100      0.0    0.92     -9     -9      0      0      0    10.0    10.0    100    -9.00      0.0      0.0      0.0   100     0.0     0.000    -9.9    0.000   -9.900      -9        0.00    0.000    0.000     214.4    182.0    0.92   168.8     382.7     139.6      97.6      75.0      38.8      38.1    0.000     0.000     0.000     0.000     0.000    0.92     0.00    0.00      0   -9.90   -9.00       39.9       17.2       16.8       17.5       17.0       16.8       16.6       16.4       16.3       16.3       16.2       16.2        0.0        0.0        0.0        0.0        0.0        0.0        0.0        0.0        0.0        0.0        0.0        0.0     23.1       0.4      -3.5      -2.2      -0.9    391.85
    10     3  2011    69     2     201.7     3.7      0.0    0.0    3.7    0.0     16.1      0.0   -9.90      0.4      0.4    100      0.0      0.0   100      0.4     0.4     100      0.0    0.93     -9     -9      0      0      0    10.0    10.0    100    -9.00      0.0      0.0      0.0   100     0.0     0.000    -9.9    0.000   -9.900      -9        0.00    0.000    0.000     201.7    168.7    0.93   156.4     385.7     140.7      98.4      75.6      39.1      38.4    0.000     0.000     0.000     0.000     0.000    0.93     0.00    0.00      0   -9.90   -9.00       20.2       16.9       17.1       18.4       17.8       17.4       17.1       16.9       16.7       16.6       16.5       16.4        0.0        0.0        0.0        0.0        0.0        0.0        0.0        0.0        0.0        0.0        0.0        0.0      3.7       0.4      -7.0      -4.8      -2.7    391.85
    11     3  2011    70     2     205.8    16.4      0.0    0.0   15.4    1.0     10.9      0.0   -9.90      0.4      0.4    100      0.0      0.0   100      0.4     0.4     100      0.0    0.93     -9     -9      0      0      0    10.0    10.0    100    -9.00      0.0      0.0      0.0   100     0.0     0.000    -9.9    0.000   -9.900      -9        0.00    0.000    0.000     205.8    173.3    0.93   162.3     388.7     141.8      99.1      76.2      39.4      38.7    0.000     0.000     0.000     0.000     0.000    0.93     0.00    0.00      0   -9.90   -9.00       33.5       16.4       16.2       16.6       16.5       16.5       16.4       16.4       16.3       16.3       16.3       16.2        0.0        0.0        0.0        0.0        0.0        0.0        0.0        0.0        0.0        0.0        0.0        0.0     16.4       0.4      -9.0      -5.2      -1.5    391.85
    12     3  2011    71     2     198.5     4.2      0.0    0.0    4.2    0.0     11.1      0.0   -9.90      0.5      0.5    100      0.0      0.0   100      0.5     0.5     100      0.0    0.94     -9     -9      0      0      0    10.0    10.0    100    -9.00      0.0      0.0      0.0   100     0.0     0.000    -9.9    0.000   -9.900      -9        0.00    0.000    0.000     198.5    165.9    0.94   156.0     391.7     142.9     100.3      77.1      39.7      39.0    0.000     0.000     0.000     0.000     0.000    0.94     0.00    0.00      0   -9.90   -9.00       20.8       17.2       16.8       17.6       17.1       16.8       16.6       16.6       16.4       16.4       16.3       16.3        0.0        0.0        0.0        0.0        0.0        0.0        0.0        0.0        0.0        0.0        0.0        0.0      4.2       0.5      -4.3      -2.2      -0.2    391.85
    13     3  2011    72     2     202.8    13.8      0.0    0.0   13.2    0.6      8.4      0.0   -9.90      0.5      0.5    100      0.0      0.0   100      0.5     0.5     100      0.0    0.95     -9     -9      0      0      0    10.0    10.0    100    -9.00      0.0      0.0      0.0   100     0.0     0.000    -9.9    0.000   -9.900      -9        0.00    0.000    0.000     202.8    170.5    0.95   161.9     394.6     144.0     101.0      77.7      40.0      39.3    0.000     0.000     0.000     0.000     0.000    0.95     0.00    0.00      0   -9.90   -9.00       30.9       16.5       16.2       16.5       16.5       16.4       16.3       16.3       16.2       16.2       16.2       16.1        0.0        0.0        0.0        0.0        0.0        0.0        0.0        0.0        0.0        0.0        0.0        0.0     13.8       0.5      -3.8      -1.6       0.5    391.85
    14     3  2011    73     2     193.2     0.0      0.0    0.0    0.0    0.0      9.0      0.0   -9.90      0.5      0.5    100      0.0      0.0   100      0.5     0.5     100      0.0    0.95     -9     -9      0      0      0    10.0    10.0    100    -9.00      0.0      0.0      0.0   100     0.0     0.000    -9.9    0.000   -9.900      -9        0.00    0.000    0.000     193.2    160.9    0.95   153.3     397.6     145.0     102.2      78.6      40.4      39.6    0.000     0.000     0.000     0.000     0.000    0.95     0.00    0.00      0   -9.90   -9.00       16.5       17.1       16.7       17.4       16.9       16.7       16.5       16.4       16.3       16.3       16.2       16.2        0.0        0.0        0.0        0.0        0.0        0.0        0.0        0.0        0.0        0.0        0.0        0.0      0.0       0.6      -2.3      -0.3       1.7    391.85
    15     3  2011    74     2     186.6     0.0      0.0    0.0    0.0    0.0      5.9      0.0   -9.90      0.7      0.7    100      0.0      0.0   100      0.7     0.7     100      0.0    0.96     -9     -9      0      0      0    10.0    10.0    100    -9.00      0.0      0.0      0.0   100     0.0     0.000    -9.9    0.000   -9.900      -9        0.00    0.000    0.000     186.6    154.5    0.96   148.1     400.5     146.1     103.7      79.8      40.7      39.9    0.000     0.000     0.000     0.000     0.000    0.96     0.00    0.00      0   -9.90   -9.00       15.1       16.0       16.0       16.3       16.2       16.2       16.1       16.1       16.1       16.1       16.1       16.0        0.0        0.0        0.0        0.0        0.0        0.0        0.0        0.0        0.0        0.0        0.0        0.0      0.0       0.8      -3.7      -0.4       2.9    391.85
    16     3  2011    75     2     183.4     0.0      0.0    0.0    0.0    0.0      2.2      0.0   -9.90      1.0      1.0    100      0.0      0.0   100      1.0     1.0     100      0.0    0.97     -9     -9      0      0      0    10.0    10.0    100    -9.00      0.0      0.0      0.0   100     0.0     0.000    -9.9    0.000   -9.900      -9        0.00    0.000    0.000     183.4    151.6    0.97   146.3     403.4     147.2     105.6      81.3      41.1      40.2    0.000     0.000     0.000     0.000     0.000    0.97     0.00    0.00      0   -9.90   -9.00       14.0       15.8       15.8       16.0       15.9       15.9       15.9       15.9       15.9       15.9       15.9       15.9        0.0        0.0        0.0        0.0        0.0        0.0        0.0        0.0        0.0        0.0        0.0        0.0      0.0       1.1      -7.0      -2.4       2.2    391.85
    17     3  2011    76     2     182.0     0.0      0.0    0.0    0.0    0.0      0.7      0.0   -9.90      0.7      0.7    100      0.0      0.0   100      0.7     0.7     100      0.0    0.97     -9     -9      0      0      0    10.0    10.0    100    -9.00      0.0      0.0      0.0   100     0.0     0.000    -9.9    0.000   -9.900      -9        0.00    0.000    0.000     182.0    150.3    0.97   146.1     406.3     148.2     105.2      81.0      41.3      40.5    0.000     0.000     0.000     0.000     0.000    0.97     0.00    0.00      0   -9.90   -9.00       13.1       15.8       15.8       15.8       15.8       15.8       15.8       15.8       15.8       15.8       15.8       15.8        0.0        0.0        0.0        0.0        0.0        0.0        0.0        0.0        0.0        0.0        0.0        0.0      0.0       0.8      -7.4      -3.5       0.4    391.85
    18     3  2011    77     2     187.7     6.4      0.0    0.0    6.4    0.0      0.2      0.0   -9.90      0.5      0.5    100      0.0      0.0   100      0.5     0.5     100      0.0    0.98     -9     -9      0      0      0    10.0    10.0    100    -9.00      0.0      0.0      0.0   100     0.0     0.000    -9.9    0.000   -9.900      -9        0.00    0.000    0.000     187.7    156.1    0.98   153.0     409.2     149.3     104.8      80.6      41.5      40.8    0.000     0.000     0.000     0.000     0.000    0.98     0.00    0.00      0   -9.90   -9.00       19.9       15.8       15.8       15.8       15.8       15.8       15.8       15.8       15.8       15.8       15.8       15.8        0.0        0.0        0.0        0.0        0.0        0.0        0.0        0.0        0.0        0.0        0.0        0.0      6.4       0.5      -3.4      -2.1      -0.8    391.85
    19     3  2011    78     2     189.3     3.5      0.0    0.0    3.5    0.0      1.3      0.0   -9.90      0.6      0.6    100      0.0      0.0   100      0.6     0.6     100      0.0    0.99     -9     -9      0      0      0    10.0    10.0    100    -9.00      0.0      0.0      0.0   100     0.0     0.000    -9.9    0.000   -9.900      -9        0.00    0.000    0.000     189.3    157.6    0.99   155.5     412.1     150.3     106.3      81.8      41.9      41.1    0.000     0.000     0.000     0.000     0.000    0.99     0.00    0.00      0   -9.90   -9.00       19.6       16.3       16.1       16.2       16.0       16.0       15.9       15.9       15.9       15.9       15.9       15.9        0.0        0.0        0.0        0.0        0.0        0.0        0.0        0.0        0.0        0.0        0.0        0.0      3.5       0.7      -3.6      -0.6       2.5    391.85
    20     3  2011    79     2     189.9     3.4      0.0    0.0    3.4    0.0      2.3      0.0   -9.90      0.5      0.5    100      0.0      0.0   100      0.5     0.5     100      0.0    0.99     -9     -9      0      0      0    10.0    10.0    100    -9.00      0.0      0.0      0.0   100     0.0     0.000    -9.9    0.000   -9.900      -9        0.00    0.000    0.000     189.9    158.1    0.99   157.0     415.0     151.4     106.7      82.0      42.2      41.4    0.000     0.000     0.000     0.000     0.000    0.99     0.00    0.00      0   -9.90   -9.00       19.6       16.3       16.1       16.2       16.1       16.0       16.0       16.0       15.9       15.9       15.9       15.9        0.0        0.0        0.0        0.0        0.0        0.0        0.0        0.0        0.0        0.0        0.0        0.0      3.4       0.6      -3.6      -1.0       1.7    391.85
    21     3  2011    80     2     213.0    31.3      0.0    0.0   26.3    5.0      2.8      0.0   -9.90      0.5      0.5    100      0.0      0.0   100      0.5     0.5     100      0.0    1.00     -9     -9      0      0      0    10.0    10.0    100    -9.00      0.0      0.0      0.0   100     0.0     0.000    -9.9    0.000   -9.900      -9        0.00    0.000    0.000     213.0    181.2    1.00   181.2     417.9     152.4     107.0      82.3      42.4      41.7    0.000     0.000     0.000     0.000     0.000    1.00     0.00    0.00      0   -9.90   -9.00       42.6       19.4       16.1       16.2       16.1       16.1       16.0       16.0       16.0       15.9       15.9       15.9        0.0        0.0        0.0        0.0        0.0        0.0        0.0        0.0        0.0        0.0        0.0        0.0     31.3       0.5       1.2       2.5       3.9    391.85
    22     3  2011    81     2     220.6    25.4      0.0    0.0   22.3    3.1     14.1      0.0   -9.90      0.6      0.6    100      0.0      0.0   100      0.6     0.6     100      0.0    1.00     -9     -9      0      0      0    10.0    10.0    100    -9.00      0.0      0.0      0.0   100     0.0     0.000    -9.9    0.000   -9.900      -9        0.00    0.000    0.000     220.6    187.8    1.00   187.8     417.9     152.4     107.8      82.9      42.5      41.7    0.000     0.000     0.000     0.000     0.000    1.00     0.00    0.00      0   -9.90   -9.00       41.2       16.7       17.2       18.9       18.0       17.5       17.1       16.9       16.7       16.6       16.5       16.4        0.0        0.0        0.0        0.0        0.0        0.0        0.0        0.0        0.0        0.0        0.0        0.0     25.4       0.7      -0.3       1.6       3.4    391.85
    23     3  2011    82     2     223.1    27.2      0.0    0.0   23.6    3.6     20.6      0.0   -9.90      0.5      0.5    100      0.0      0.0   100      0.5     0.5     100      0.0    1.00     -9     -9      0      0      0    10.0    10.0    100    -9.00      0.0      0.0      0.0   100     0.0     0.000    -9.9    0.000   -9.900      -9        0.00    0.000    0.000     223.1    189.8    1.00   189.8     417.9     152.4     107.0      82.3      42.4      41.7    0.000     0.000     0.000     0.000     0.000    1.00     0.00    0.00      0   -9.90   -9.00       42.6       16.8       17.1       18.6       18.0       17.6       17.3       17.1       16.9       16.8       16.7       16.6        0.0        0.0        0.0        0.0        0.0        0.0        0.0        0.0        0.0        0.0        0.0        0.0     27.2       0.5      -1.3       1.2       3.8    391.85
    24     3  2011    83     2     204.3     4.2      0.0    0.0    4.2    0.0     22.4      0.0   -9.90      0.6      0.6    100      0.0      0.0   100      0.6     0.6     100      0.0    1.00     -9     -9      0      0      0    10.0    10.0    100    -9.00      0.0      0.0      0.0   100     0.0     0.000    -9.9    0.000   -9.900      -9        0.00    0.000    0.000     204.3    170.9    1.00   170.9     417.9     152.4     107.8      82.9      42.5      41.7    0.000     0.000     0.000     0.000     0.000    1.00     0.00    0.00      0   -9.90   -9.00       20.6       16.7       17.1       18.7       18.1       17.7       17.4       17.2       17.0       16.9       16.8       16.7        0.0        0.0        0.0        0.0        0.0        0.0        0.0        0.0        0.0        0.0        0.0        0.0      4.2       0.7      -1.9       0.6       3.0    391.85
    25     3  2011    84     2     190.7     0.0      0.0    0.0    0.0    0.0     12.9      0.0   -9.90      0.7      0.7    100      0.0      0.0   100      0.7     0.7     100      0.0    1.00     -9     -9      0      0      0    10.0    10.0    100    -9.00      0.0      0.0      0.0   100     0.0     0.000    -9.9    0.000   -9.900      -9        0.00    0.000    0.000     190.7    158.0    1.00   158.0     417.9     152.4     108.2      83.3      42.5      41.7    0.000     0.000     0.000     0.000     0.000    1.00     0.00    0.00      0   -9.90   -9.00       15.6       16.4       16.2       16.7       16.5       16.5       16.5       16.5       16.4       16.4       16.3       16.3        0.0        0.0        0.0        0.0        0.0        0.0        0.0        0.0        0.0        0.0        0.0        0.0      0.0       0.8      -8.2      -4.8      -1.4    391.85
    26     3  2011    85     2     185.3     0.0      0.0    0.0    0.0    0.0      4.8      0.0   -9.90      0.6      0.6    100      0.0      0.0   100      0.6     0.6     100      0.0    1.00     -9     -9      0      0      0    10.0    10.0    100    -9.00      0.0      0.0      0.0   100     0.0     0.000    -9.9    0.000   -9.900      -9        0.00    0.000    0.000     185.3    153.3    1.00   153.3     417.9     152.4     107.8      82.9      42.5      41.7    0.000     0.000     0.000     0.000     0.000    1.00     0.00    0.00      0   -9.90   -9.00       14.9       15.9       15.9       16.1       16.0       16.0       16.0       16.0       16.0       16.0       16.0       16.0        0.0        0.0        0.0        0.0        0.0        0.0        0.0        0.0        0.0        0.0        0.0        0.0      0.0       0.7     -13.3      -7.6      -1.8    391.85
    27     3  2011    86     2     192.8     9.5      0.0    0.0    9.4    0.1      1.4      0.0   -9.90      0.5      0.5    100      0.0      0.0   100      0.5     0.5     100      0.0    1.00     -9     -9      0      0      0    10.0    10.0    100    -9.00      0.0      0.0      0.0   100     0.0     0.000    -9.9    0.000   -9.900      -9        0.00    0.000    0.000     192.8    161.1    1.00   161.1     417.9     152.4     107.0      82.3      42.4      41.7    0.000     0.000     0.000     0.000     0.000    1.00     0.00    0.00      0   -9.90   -9.00       25.1       15.8       15.8       15.9       15.9       15.9       15.9       15.9       15.9       15.9       15.9       15.9        0.0        0.0        0.0        0.0        0.0        0.0        0.0        0.0        0.0        0.0        0.0        0.0      9.5       0.5      -6.6      -3.0       0.6    391.85
    28     3  2011    87     2     197.4     8.7      0.0    0.0    8.6    0.1      3.3      0.0   -9.90      0.6      0.6    100      0.0      0.0   100      0.6     0.6     100      0.0    1.00     -9     -9      0      0      0    10.0    10.0    100    -9.00      0.0      0.0      0.0   100     0.0     0.000    -9.9    0.000   -9.900      -9        0.00    0.000    0.000     197.4    165.5    1.00   165.5     417.9     152.4     107.8      82.9      42.5      41.7    0.000     0.000     0.000     0.000     0.000    1.00     0.00    0.00      0   -9.90   -9.00       25.9       16.8       16.4       16.7       16.4       16.2       16.1       16.1       16.0       16.0       16.0       15.9        0.0        0.0        0.0        0.0        0.0        0.0        0.0        0.0        0.0        0.0        0.0        0.0      8.7       0.7      -4.6      -2.5      -0.5    391.85
[...]
    10    12  2016    -9     0     207.8    13.6      0.0    0.0   13.0    0.6     14.1      0.0   -9.90      0.1      0.1    100      0.0      0.0   100      0.1     0.1     100      0.0    1.00     -9     -9     -9      0     -9     0.0     0.0      0    -9.00      0.0      0.0      0.0   100    12.7     4.205    85.0    3.574   -9.900      71        1.72    0.000    0.000     207.8    175.0    1.00   175.0     417.9     152.4     109.0      81.0      42.6      41.7    0.000     0.000     0.000     0.000     0.000    1.00     0.00    0.00      0   -9.90   -9.00       31.7       17.0       16.6       17.2       17.0       16.8       16.7       16.6       16.5       16.5       16.4       16.4        0.0        0.0        0.0        0.0        0.0        0.0        0.0        0.0        0.0        0.0        0.0        0.0     13.6       0.1       2.8       3.4       4.0    404.41
    11    12  2016    -9     0     197.3     2.3      0.0    0.0    2.3    0.0     12.8      0.0   -9.90      0.0      0.0    100      0.0      0.0   100      0.0     0.0     100      0.0    1.00     -9     -9     -9      0     -9     0.0     0.0      0    -9.00      0.0      0.0      0.0   100    12.7     4.205    85.0    3.574   -9.900      71        1.72    0.000    0.000     197.3    164.6    1.00   164.6     417.9     152.4     109.0      80.6      42.6      41.7    0.000     0.000     0.000     0.000     0.000    1.00     0.00    0.00      0   -9.90   -9.00       18.8       17.2       16.9       17.5       17.1       16.9       16.8       16.6       16.5       16.4       16.4       16.3        0.0        0.0        0.0        0.0        0.0        0.0        0.0        0.0        0.0        0.0        0.0        0.0      2.3       0.0      -1.9       0.2       2.4    404.41
    12    12  2016    -9     0     192.5     3.5      0.0    0.0    3.5    0.0      8.3      0.0   -9.90      0.1      0.1    100      0.0      0.0   100      0.1     0.1     100      0.0    1.00     -9     -9     -9      0     -9     0.0     0.0      0    -9.00      0.0      0.0      0.0   100    12.7     4.205    85.0    3.574   -9.900      71        1.72    0.000    0.000     192.5    160.2    1.00   160.2     417.9     152.4     109.0      81.0      42.6      41.7    0.000     0.000     0.000     0.000     0.000    1.00     0.00    0.00      0   -9.90   -9.00       20.1       16.2       16.1       16.4       16.4       16.3       16.3       16.2       16.2       16.2       16.2       16.1        0.0        0.0        0.0        0.0        0.0        0.0        0.0        0.0        0.0        0.0        0.0        0.0      3.5       0.1      -2.9      -1.0       0.9    404.41
    13    12  2016    -9     0     190.5     2.8      0.0    0.0    2.8    0.0      4.7      0.0   -9.90      0.1      0.1    100      0.0      0.0   100      0.1     0.1     100      0.0    1.00     -9     -9     -9      0     -9     0.0     0.0      0    -9.00      0.0      0.0      0.0   100    12.7     4.205    85.0    3.574   -9.900      71        1.72    0.000    0.000     190.5    158.5    1.00   158.5     417.9     152.4     109.0      81.0      42.6      41.7    0.000     0.000     0.000     0.000     0.000    1.00     0.00    0.00      0   -9.90   -9.00       19.4       16.4       16.1       16.3       16.2       16.1       16.1       16.0       16.0       16.0       16.0       16.0        0.0        0.0        0.0        0.0        0.0        0.0        0.0        0.0        0.0        0.0        0.0        0.0      2.8       0.1      -3.6      -0.8       2.0    404.41
    14    12  2016    -9     0     187.1     0.0      0.0    0.0    0.0    0.0      3.3      0.0   -9.90      0.1      0.1    100      0.0      0.0   100      0.1     0.1     100      0.0    1.00     -9     -9     -9      0     -9     0.0     0.0      0    -9.00      0.0      0.0      0.0   100    12.7     4.205    85.0    3.574   -9.900      71        1.72    0.000    0.000     187.1    155.3    1.00   155.3     417.9     152.4     109.0      81.0      42.6      41.7    0.000     0.000     0.000     0.000     0.000    1.00     0.00    0.00      0   -9.90   -9.00       16.2       16.3       16.1       16.2       16.1       16.1       16.0       16.0       16.0       16.0       15.9       15.9        0.0        0.0        0.0        0.0        0.0        0.0        0.0        0.0        0.0        0.0        0.0        0.0      0.0       0.1      -6.9      -5.6      -4.3    404.41
    15    12  2016    -9     0     185.0     0.0      0.0    0.0    0.0    0.0      2.0      0.0   -9.90      0.2      0.2    100      0.0      0.0   100      0.2     0.2     100      0.0    1.00     -9     -9     -9      0     -9     0.0     0.0      0    -9.00      0.0      0.0      0.0   100    12.7     4.205    85.0    3.574   -9.900      71        1.72    0.000    0.000     185.0    153.2    1.00   153.2     417.9     152.4     109.0      81.6      42.6      41.7    0.000     0.000     0.000     0.000     0.000    1.00     0.00    0.00      0   -9.90   -9.00       15.6       15.9       15.9       15.9       15.9       15.9       15.9       15.9       15.9       15.9       15.9       15.9        0.0        0.0        0.0        0.0        0.0        0.0        0.0        0.0        0.0        0.0        0.0        0.0      0.0       0.3      -2.1       0.3       2.8    404.41
    16    12  2016    -9     0     184.2     0.0      0.0    0.0    0.0    0.0      0.8      0.0   -9.90      0.0      0.0    100      0.0      0.0   100      0.0     0.0     100      0.0    1.00     -9     -9     -9      0     -9     0.0     0.0      0    -9.00      0.0      0.0      0.0   100    12.7     4.205    85.0    3.574   -9.900      71        1.72    0.000    0.000     184.2    152.6    1.00   152.6     417.9     152.4     109.0      80.6      42.6      41.7    0.000     0.000     0.000     0.000     0.000    1.00     0.00    0.00      0   -9.90   -9.00       15.6       15.8       15.8       15.8       15.8       15.8       15.8       15.8       15.8       15.8       15.8       15.8        0.0        0.0        0.0        0.0        0.0        0.0        0.0        0.0        0.0        0.0        0.0        0.0      0.0       0.0       0.6       1.7       2.7    404.41
    17    12  2016    -9     0     193.8    10.1      0.0    0.0    9.9    0.2      0.2      0.0   -9.90      0.1      0.1    100      0.0      0.0   100      0.1     0.1     100      0.0    1.00     -9     -9     -9      0     -9     0.0     0.0      0    -9.00      0.0      0.0      0.0   100    12.7     4.205    85.0    3.574   -9.900      71        1.72    0.000    0.000     193.8    162.1    1.00   162.1     417.9     152.4     109.0      81.3      42.6      41.7    0.000     0.000     0.000     0.000     0.000    1.00     0.00    0.00      0   -9.90   -9.00       26.7       15.8       15.8       15.8       15.8       15.8       15.8       15.8       15.8       15.8       15.8       15.8        0.0        0.0        0.0        0.0        0.0        0.0        0.0        0.0        0.0        0.0        0.0        0.0     10.1       0.2       0.8       1.8       2.7    404.41
    18    12  2016    -9     0     190.0     0.0      0.0    0.0    0.0    0.0      3.5      0.0   -9.90      0.2      0.2    100      0.0      0.0   100      0.2     0.2     100      0.0    1.00     -9     -9     -9      0     -9     0.0     0.0      0    -9.00      0.0      0.0      0.0   100    12.7     4.205    85.0    3.574   -9.900      71        1.72    0.000    0.000     190.0    158.1    1.00   158.1     417.9     152.4     109.0      81.6      42.6      41.7    0.000     0.000     0.000     0.000     0.000    1.00     0.00    0.00      0   -9.90   -9.00       16.8       16.9       16.5       16.8       16.5       16.3       16.2       16.1       16.0       16.0       16.0       16.0        0.0        0.0        0.0        0.0        0.0        0.0        0.0        0.0        0.0        0.0        0.0        0.0      0.0       0.3      -1.4       0.4       2.3    404.41
    19    12  2016    -9     0     186.4     0.0      0.0    0.0    0.0    0.0      3.6      0.0   -9.90      0.1      0.1    100      0.0      0.0   100      0.1     0.1     100      0.0    1.00     -9     -9     -9      0     -9     0.0     0.0      0    -9.00      0.0      0.0      0.0   100    12.7     4.205    85.0    3.574   -9.900      71        1.72    0.000    0.000     186.4    154.5    1.00   154.5     417.9     152.4     109.0      81.0      42.6      41.7    0.000     0.000     0.000     0.000     0.000    1.00     0.00    0.00      0   -9.90   -9.00       15.9       16.0       16.0       16.1       16.1       16.1       16.0       16.0       16.0       16.0       16.0       15.9        0.0        0.0        0.0        0.0        0.0        0.0        0.0        0.0        0.0        0.0        0.0        0.0      0.0       0.1       2.6       3.8       5.0    404.41
    20    12  2016    -9     0     184.5     0.0      0.0    0.0    0.0    0.0      1.6      0.0   -9.90      0.3      0.3    100      0.0      0.0   100      0.3     0.3     100      0.0    1.00     -9     -9     -9      0     -9     0.0     0.0      0    -9.00      0.0      0.0      0.0   100    12.7     4.205    85.0    3.574   -9.900      71        1.72    0.000    0.000     184.5    152.8    1.00   152.8     417.9     152.4     109.0      81.9      42.6      41.7    0.000     0.000     0.000     0.000     0.000    1.00     0.00    0.00      0   -9.90   -9.00       15.5       15.8       15.8       15.9       15.9       15.9       15.9       15.9       15.9       15.9       15.9       15.9        0.0        0.0        0.0        0.0        0.0        0.0        0.0        0.0        0.0        0.0        0.0        0.0      0.0       0.4       2.4       3.3       4.2    404.41
    21    12  2016    -9     0     199.6    17.0      0.0    0.0   16.0    1.0      0.5      0.0   -9.90      0.3      0.3    100      0.0      0.0   100      0.3     0.3     100      0.0    1.00     -9     -9     -9      0     -9     0.0     0.0      0    -9.00      0.0      0.0      0.0   100    12.7     4.205    85.0    3.574   -9.900      71        1.72    0.000    0.000     199.6    168.0    1.00   168.0     417.9     152.4     109.0      82.3      42.6      41.7    0.000     0.000     0.000     0.000     0.000    1.00     0.00    0.00      0   -9.90   -9.00       33.2       15.8       15.8       15.8       15.8       15.8       15.8       15.8       15.8       15.8       15.8       15.8        0.0        0.0        0.0        0.0        0.0        0.0        0.0        0.0        0.0        0.0        0.0        0.0     17.0       0.5       1.0       2.0       3.1    404.41
    22    12  2016    -9     0     212.9    22.2      0.0    0.0   20.0    2.2      6.4      0.0   -9.90      0.3      0.3    100      0.0      0.0   100      0.3     0.3     100      0.0    1.00     -9     -9     -9      0     -9     0.0     0.0      0    -9.00      0.0      0.0      0.0   100    12.7     4.205    85.0    3.574   -9.900      71        1.72    0.000    0.000     212.9    180.7    1.00   180.7     417.9     152.4     109.0      81.9      42.6      41.7    0.000     0.000     0.000     0.000     0.000    1.00     0.00    0.00      0   -9.90   -9.00       39.3       17.2       16.8       17.5       16.9       16.6       16.4       16.3       16.2       16.2       16.1       16.1        0.0        0.0        0.0        0.0        0.0        0.0        0.0        0.0        0.0        0.0        0.0        0.0     22.2       0.4      -0.0       1.1       2.3    404.41
    23    12  2016    -9     0     222.0    27.9      0.0    0.0   24.1    3.8     15.0      0.0   -9.90      0.1      0.1    100      0.0      0.0   100      0.1     0.1     100      0.0    1.00     -9     -9     -9      0     -9     0.0     0.0      0    -9.00      0.0      0.0      0.0   100    12.7     4.205    85.0    3.574   -9.900      71        1.72    0.000    0.000     222.0    189.0    1.00   189.0     417.9     152.4     109.0      81.0      42.6      41.7    0.000     0.000     0.000     0.000     0.000    1.00     0.00    0.00      0   -9.90   -9.00       43.0       17.1       17.1       18.4       17.7       17.3       17.0       17.0       16.7       16.7       16.5       16.5        0.0        0.0        0.0        0.0        0.0        0.0        0.0        0.0        0.0        0.0        0.0        0.0     27.9       0.1      -0.6       1.1       2.7    404.41
    24    12  2016    -9     0     221.4    23.4      0.0    0.0   20.9    2.5     21.2      0.0   -9.90      0.2      0.2    100      0.0      0.0   100      0.2     0.2     100      0.0    1.00     -9     -9     -9      0     -9     0.0     0.0      0    -9.00      0.0      0.0      0.0   100    12.7     4.205    85.0    3.574   -9.900      71        1.72    0.000    0.000     221.4    188.1    1.00   188.1     417.9     152.4     109.0      81.6      42.6      41.7    0.000     0.000     0.000     0.000     0.000    1.00     0.00    0.00      0   -9.90   -9.00       40.0       16.6       17.1       18.8       18.1       17.7       17.4       17.1       17.0       16.8       16.7       16.6        0.0        0.0        0.0        0.0        0.0        0.0        0.0        0.0        0.0        0.0        0.0        0.0     23.4       0.3      -0.8       0.5       1.9    404.41
    25    12  2016    -9     0     222.1    25.3      0.0    0.0   22.2    3.1     21.4      0.0   -9.90      0.3      0.3    100      0.0      0.0   100      0.3     0.3     100      0.0    1.00     -9     -9     -9      0     -9     0.0     0.0      0    -9.00      0.0      0.0      0.0   100    12.7     4.205    85.0    3.574   -9.900      71        1.72    0.000    0.000     222.1    188.7    1.00   188.7     417.9     152.4     109.0      81.9      42.6      41.7    0.000     0.000     0.000     0.000     0.000    1.00     0.00    0.00      0   -9.90   -9.00       41.6       16.9       17.1       18.4       17.9       17.5       17.3       17.1       16.9       16.8       16.7       16.6        0.0        0.0        0.0        0.0        0.0        0.0        0.0        0.0        0.0        0.0        0.0        0.0     25.3       0.4       0.4       3.1       5.8    404.41
    26    12  2016    -9     0     221.7    24.2      0.0    0.0   21.4    2.8     21.5      0.0   -9.90      0.3      0.3    100      0.0      0.0   100      0.3     0.3     100      0.0    1.00     -9     -9     -9      0     -9     0.0     0.0      0    -9.00      0.0      0.0      0.0   100    12.7     4.205    85.0    3.574   -9.900      71        1.72    0.000    0.000     221.7    188.3    1.00   188.3     417.9     152.4     109.0      81.9      42.6      41.7    0.000     0.000     0.000     0.000     0.000    1.00     0.00    0.00      0   -9.90   -9.00       40.8       16.8       17.1       18.6       18.0       17.6       17.3       17.1       17.0       16.8       16.7       16.7        0.0        0.0        0.0        0.0        0.0        0.0        0.0        0.0        0.0        0.0        0.0        0.0     24.2       0.4      -0.7       1.1       3.0    404.41
    27    12  2016    -9     0     201.8     2.1      0.0    0.0    2.1    0.0     21.9      0.0   -9.90      0.1      0.1    100      0.0      0.0   100      0.1     0.1     100      0.0    1.00     -9     -9     -9      0     -9     0.0     0.0      0    -9.00      0.0      0.0      0.0   100    12.7     4.205    85.0    3.574   -9.900      71        1.72    0.000    0.000     201.8    168.4    1.00   168.4     417.9     152.4     109.0      81.3      42.6      41.7    0.000     0.000     0.000     0.000     0.000    1.00     0.00    0.00      0   -9.90   -9.00       18.4       16.8       17.1       18.5       17.9       17.6       17.3       17.1       16.9       16.8       16.7       16.6        0.0        0.0        0.0        0.0        0.0        0.0        0.0        0.0        0.0        0.0        0.0        0.0      2.1       0.2      -0.4       0.5       1.4    404.41
    28    12  2016    -9     0     190.1     0.0      0.0    0.0    0.0    0.0     11.6      0.0   -9.90      0.1      0.1    100      0.0      0.0   100      0.1     0.1     100      0.0    1.00     -9     -9     -9      0     -9     0.0     0.0      0    -9.00      0.0      0.0      0.0   100    12.7     4.205    85.0    3.574   -9.900      71        1.72    0.000    0.000     190.1    157.5    1.00   157.5     417.9     152.4     109.0      81.0      42.6      41.7    0.000     0.000     0.000     0.000     0.000    1.00     0.00    0.00      0   -9.90   -9.00       16.1       16.2       16.1       16.6       16.5       16.4       16.4       16.4       16.3       16.3       16.3       16.3        0.0        0.0        0.0        0.0        0.0        0.0        0.0        0.0        0.0        0.0        0.0        0.0      0.0       0.1      -0.1       1.2       2.6    404.41
    29    12  2016    -9     0     188.6     3.0      0.0    0.0    3.0    0.0      4.3      0.0   -9.90      0.2      0.2    100      0.0      0.0   100      0.2     0.2     100      0.0    1.00     -9     -9     -9      0     -9     0.0     0.0      0    -9.00      0.0      0.0      0.0   100    12.7     4.205    85.0    3.574   -9.900      71        1.72    0.000    0.000     188.6    156.7    1.00   156.7     417.9     152.4     109.0      81.6      42.6      41.7    0.000     0.000     0.000     0.000     0.000    1.00     0.00    0.00      0   -9.90   -9.00       19.0       15.9       15.9       16.1       16.0       16.0       16.0       16.0       16.0       16.0       16.0       16.0        0.0        0.0        0.0        0.0        0.0        0.0        0.0        0.0        0.0        0.0        0.0        0.0      3.0       0.3       2.7       3.2       3.6    404.41
    30    12  2016    -9     0     214.0    33.8      0.0    0.0   27.9    5.9      2.3      0.0   -9.90      0.3      0.3    100      0.0      0.0   100      0.3     0.3     100      0.0    1.00     -9     -9     -9      0     -9     0.0     0.0      0    -9.00      0.0      0.0      0.0   100    12.7     4.205    85.0    3.574   -9.900      71        1.72    0.000    0.000     214.0    182.2    1.00   182.2     417.9     152.4     109.0      81.9      42.6      41.7    0.000     0.000     0.000     0.000     0.000    1.00     0.00    0.00      0   -9.90   -9.00       42.8       21.0       16.0       16.1       16.0       16.0       15.9       15.9       15.9       15.9       15.9       15.9        0.0        0.0        0.0        0.0        0.0        0.0        0.0        0.0        0.0        0.0        0.0        0.0     33.8       0.4       3.8       4.8       5.9    404.41
    31    12  2016    -9     0     224.9    30.7      0.0    0.0   25.9    4.8     14.9      0.0   -9.90      0.3      0.3    100      0.0      0.0   100      0.3     0.3     100      0.0    1.00     -9     -9     -9      0     -9     0.0     0.0      0    -9.00      0.0      0.0      0.0   100    12.7     4.205    85.0    3.574   -9.900      71        1.72    0.000    0.000     224.9    192.0    1.00   192.0     417.9     152.4     109.0      81.9      42.6      41.7    0.000     0.000     0.000     0.000     0.000    1.00     0.00    0.00      0   -9.90   -9.00       42.8       19.2       17.2       19.0       18.1       17.5       17.2       16.9       16.7       16.6       16.5       16.4        0.0        0.0        0.0        0.0        0.0        0.0        0.0        0.0        0.0        0.0        0.0        0.0     30.7       0.4       0.9       3.5       6.1    404.41
