AquaCrop 7.1 (August 2023) - Output created on (date) : 19-08-2023   at (time) : 13:48:23

    RunNr     Day1   Month1    Year1     Rain      ETo       GD     CO2      Irri   Infilt   Runoff    Drain   Upflow        E     E/Ex       Tr      TrW   Tr/Trx    SaltIn   SaltOut    SaltUp  SaltProf     Cycle   SaltStr  FertStr  WeedStr  TempStr   ExpStr   StoStr  BioMass  Brelative   HI    Y(dry)  Y(fresh)    WPet      Bin     Bout     DayN   MonthN    YearN
                                           mm       mm  degC.day    ppm        mm       mm       mm       mm       mm       mm        %       mm       mm        %    ton/ha    ton/ha    ton/ha    ton/ha      days       %        %        %        %        %        %    ton/ha        %       %    ton/ha   ton/ha    kg/m3   ton/ha   ton/ha
   Tot(1)        1        1     2011   2284.2    511.1    868.4   391.85      0.0   2155.7    128.5   1827.5      0.0    190.3       85    133.3    133.3      100     0.000     0.000     0.000     0.000      267        0       30        0       72        0        0     8.282       69     85.0    7.040   -9.900     2.50    0.000    0.000       31       12     2011  0_0.PRM
   Tot(2)        1        1     2012   2168.9    529.3    686.8   394.06      0.0   2030.6    138.3   1664.5      0.0    216.8       84    119.8    119.8      100     0.000     0.000     0.000     0.000      267        0       30        0       75        0        0     7.285       68     85.0    6.193   -9.900     2.07    0.000    0.000       31       12     2012  0_0.PRM
   Tot(3)        1        1     2013   1918.6    519.0    844.5   396.74      0.0   1809.2    109.4   1475.5      0.0    196.3       81    152.6    152.6      100     0.000     0.000     0.000     0.000      267        0       30        0       70        0        0     9.008       71     85.0    7.657   -9.900     2.49    0.000    0.000       31       12     2013  0_0.PRM
   Tot(4)        1        1     2014   2044.5    605.5   1013.8   398.81      7.4   1920.5    124.0   1545.8      0.0    211.8       78    181.3    181.3      100     0.000     0.000     0.000     0.000      267        0       30        0       67        0        0     9.840       70     85.0    8.364   -9.900     2.40    0.000    0.000       31       12     2014  0_0.PRM
   Tot(5)        1        1     2015   2310.5    519.9    730.5   401.01      0.0   2187.9    122.6   1844.3      0.0    225.1       92    113.1    113.1      100     0.000     0.000     0.000     0.000      267        0       30        0       77        0        0     6.751       70     85.0    5.738   -9.900     1.93    0.000    0.000       31       12     2015  0_0.PRM
   Tot(6)        1        1     2016   1764.5    519.9    848.3   404.41      0.0   1674.9     89.6   1325.0      0.0    204.9       81    132.1    132.1      100     0.000     0.000     0.000     0.000      267        0       30        0       69        0        0     8.750       69     85.0    7.437   -9.900     2.48    0.000    0.000       31       12     2016  0_0.PRM
