AquaCrop 7.1 (August 2023) - Output created on (date) : 19-08-2023   at (time) : 13:48:23

   Run:   1
   Day Month  Year   DAP Stage   WC(1.20)   Rain     Irri   Surf   Infilt   RO    Drain       CR    Zgwt       Ex       E     E/Ex     Trx       Tr  Tr/Trx    ETx      ET  ET/ETx      GD       Z     StExp  StSto  StSen StSalt StWeed   CC      CCw     StTr  Kc(Tr)     Trx       Tr      TrW  Tr/Trx   WP    Biomass     HI    Y(dry)  Y(fresh)  Brelative    WPet      Bin     Bout  WC(1.20) Wr(1.00)     Z       Wr    Wr(SAT)    Wr(FC)   Wr(exp)   Wr(sto)   Wr(sen)   Wr(PWP)    SaltIn    SaltOut   SaltUp   Salt(1.20)  SaltZ     Z       ECe    ECsw   StSalt  Zgwt    ECgw       WC01       WC 2       WC 3       WC 4       WC 5       WC 6       WC 7       WC 8       WC 9       WC10       WC11       WC12      ECe01      ECe 2      ECe 3      ECe 4      ECe 5      ECe 6      ECe 7      ECe 8      ECe 9      ECe10      ECe11      ECe12     Rain       ETo      Tmin      Tavg      Tmax      CO2
                                      mm      mm       mm     mm     mm     mm       mm       mm      m        mm       mm     %        mm       mm    %        mm      mm       %  degC-day     m       %      %      %      %      %      %       %       %       -        mm       mm       mm    %     g/m2    ton/ha      %    ton/ha   ton/ha       %       kg/m3   ton/ha   ton/ha      mm       mm       m       mm        mm        mm        mm        mm        mm         mm    ton/ha    ton/ha    ton/ha    ton/ha    ton/ha     m      dS/m    dS/m      %     m      dS/m       0.05       0.15       0.25       0.35       0.45       0.55       0.65       0.75       0.85       0.95       1.05       1.15       0.05       0.15       0.25       0.35       0.45       0.55       0.65       0.75       0.85       0.95       1.05       1.15       mm        mm     degC      degC      degC       ppm
     1     1  2011     1     2     139.8     0.8      0.0    0.0    0.8    0.0      0.0      0.0   -9.90      0.8      0.8    100      0.0      0.0   100      0.8     0.8     100      0.0    0.30     -9     -9      0      0      0    10.0    10.0    100    -9.00      0.0      0.0      0.0   100     0.0     0.000    -9.9    0.000   -9.900      -9        0.00    0.000    0.000     139.8    116.4    0.30    34.5     124.7      34.5      23.5      17.3       7.0       6.8    0.000     0.000     0.000     0.000     0.000    0.30     0.00    0.00      0   -9.90   -9.00       11.7       11.7       11.7       11.7       11.7       11.7       11.7       11.7       11.7       11.7       11.7       11.7        0.0        0.0        0.0        0.0        0.0        0.0        0.0        0.0        0.0        0.0        0.0        0.0      0.8       0.9       1.3       3.1       5.0    391.85
     2     1  2011     2     2     139.5     0.0      0.0    0.0    0.0    0.0      0.0      0.0   -9.90      0.3      0.3     98      0.0      0.0   100      0.3     0.3      98      0.0    0.30     -9     -9      0      0      0    10.0    10.0    100    -9.00      0.0      0.0      0.0   100     0.0     0.000    -9.9    0.000   -9.900      -9        0.00    0.000    0.000     139.5    116.1    0.30    34.2     124.7      34.5      22.9      16.8       7.0       6.8    0.000     0.000     0.000     0.000     0.000    0.30     0.00    0.00      0   -9.90   -9.00       11.4       11.7       11.7       11.7       11.7       11.7       11.7       11.7       11.7       11.7       11.7       11.7        0.0        0.0        0.0        0.0        0.0        0.0        0.0        0.0        0.0        0.0        0.0        0.0      0.0       0.3      -4.5      -1.3       1.9    391.85
     3     1  2011     3     2     141.3     2.1      0.0    0.0    2.1    0.0      0.0      0.0   -9.90      0.3      0.3    100      0.0      0.0   100      0.3     0.3     100      0.0    0.30     -9     -9      0      0      0    10.0    10.0    100    -9.00      0.0      0.0      0.0   100     0.0     0.000    -9.9    0.000   -9.900      -9        0.00    0.000    0.000     141.3    117.9    0.30    36.0     124.7      34.5      22.9      16.8       7.0       6.8    0.000     0.000     0.000     0.000     0.000    0.30     0.00    0.00      0   -9.90   -9.00       13.3       11.7       11.7       11.7       11.7       11.7       11.7       11.7       11.7       11.7       11.7       11.7        0.0        0.0        0.0        0.0        0.0        0.0        0.0        0.0        0.0        0.0        0.0        0.0      2.1       0.3      -4.5      -0.8       2.9    391.85
     4     1  2011     4     2     145.4     5.1      0.0    0.0    5.1    0.0      0.6      0.0   -9.90      0.4      0.4    100      0.0      0.0   100      0.4     0.4     100      0.0    0.32     -9     -9      0      0      0    10.0    10.0    100    -9.00      0.0      0.0      0.0   100     0.0     0.000    -9.9    0.000   -9.900      -9        0.00    0.000    0.000     145.4    122.0    0.32    41.8     132.0      36.5      24.4      17.9       7.4       7.2    0.000     0.000     0.000     0.000     0.000    0.32     0.00    0.00      0   -9.90   -9.00       16.7       11.9       11.8       11.8       11.8       11.8       11.7       11.7       11.7       11.7       11.7       11.7        0.0        0.0        0.0        0.0        0.0        0.0        0.0        0.0        0.0        0.0        0.0        0.0      5.1       0.4       1.3       2.1       3.0    391.85
     5     1  2011     5     2     153.6    11.6      0.0    0.0   11.3    0.3      2.6      0.0   -9.90      0.5      0.5    100      0.0      0.0   100      0.5     0.5     100      0.0    0.33     -9     -9      0      0      0    10.0    10.0    100    -9.00      0.0      0.0      0.0   100     0.0     0.000    -9.9    0.000   -9.900      -9        0.00    0.000    0.000     153.6    130.0    0.33    50.9     139.3      38.5      25.9      19.0       7.9       7.6    0.000     0.000     0.000     0.000     0.000    0.33     0.00    0.00      0   -9.90   -9.00       23.3       12.3       12.0       12.1       12.0       11.9       11.9       11.8       11.8       11.8       11.8       11.8        0.0        0.0        0.0        0.0        0.0        0.0        0.0        0.0        0.0        0.0        0.0        0.0     11.6       0.5       1.4       2.4       3.4    391.85
     6     1  2011     6     2     158.0    12.7      0.0    0.0   12.2    0.5      7.2      0.0   -9.90      0.6      0.6    100      0.0      0.0   100      0.6     0.6     100      0.0    0.35     -9     -9      0      0      0    10.0    10.0    100    -9.00      0.0      0.0      0.0   100     0.0     0.000    -9.9    0.000   -9.900      -9        0.00    0.000    0.000     158.0    134.2    0.35    55.3     146.1      40.4      27.4      20.1       8.3       8.0    0.000     0.000     0.000     0.000     0.000    0.35     0.00    0.00      0   -9.90   -9.00       24.6       12.8       12.4       12.6       12.4       12.2       12.1       12.0       12.0       12.0       11.9       11.9        0.0        0.0        0.0        0.0        0.0        0.0        0.0        0.0        0.0        0.0        0.0        0.0     12.7       0.7      -0.5       1.0       2.5    391.85
     7     1  2011     7     2     150.1     3.0      0.0    0.0    3.0    0.0     10.5      0.0   -9.90      0.4      0.4    100      0.0      0.0   100      0.4     0.4     100      0.0    0.37     -9     -9      0      0      0    10.0    10.0    100    -9.00      0.0      0.0      0.0   100     0.0     0.000    -9.9    0.000   -9.900      -9        0.00    0.000    0.000     150.1    126.1    0.37    47.8     152.5      42.2      28.2      20.7       8.7       8.4    0.000     0.000     0.000     0.000     0.000    0.37     0.00    0.00      0   -9.90   -9.00       14.8       12.8       12.5       12.8       12.5       12.5       12.3       12.2       12.1       12.1       12.0       12.0        0.0        0.0        0.0        0.0        0.0        0.0        0.0        0.0        0.0        0.0        0.0        0.0      3.0       0.4      -1.1      -0.2       0.8    391.85
     8     1  2011     8     2     150.9     8.4      0.0    0.0    8.3    0.1      6.8      0.0   -9.90      0.7      0.7    100      0.0      0.0   100      0.7     0.7     100      0.0    0.38     -9     -9      0      0      0    10.0    10.0    100    -9.00      0.0      0.0      0.0   100     0.0     0.000    -9.9    0.000   -9.900      -9        0.00    0.000    0.000     150.9    127.1    0.38    52.9     158.7      43.9      29.9      22.0       9.1       8.8    0.000     0.000     0.000     0.000     0.000    0.38     0.00    0.00      0   -9.90   -9.00       19.8       12.1       12.0       12.1       12.0       12.0       12.0       12.0       11.9       11.9       11.9       11.9        0.0        0.0        0.0        0.0        0.0        0.0        0.0        0.0        0.0        0.0        0.0        0.0      8.4       0.8      -1.4       0.7       2.7    391.85
     9     1  2011     9     2     159.7    16.4      0.0    0.0   15.4    1.0      6.1      0.0   -9.90      0.5      0.5    100      0.0      0.0   100      0.5     0.5     100      0.0    0.39     -9     -9      0      0      0    10.0    10.0    100    -9.00      0.0      0.0      0.0   100     0.0     0.000    -9.9    0.000   -9.900      -9        0.00    0.000    0.000     159.7    135.9    0.39    63.2     164.6      45.5      30.7      22.6       9.4       9.1    0.000     0.000     0.000     0.000     0.000    0.39     0.00    0.00      0   -9.90   -9.00       27.7       12.6       12.2       12.3       12.2       12.1       12.0       12.0       11.9       11.9       11.9       11.9        0.0        0.0        0.0        0.0        0.0        0.0        0.0        0.0        0.0        0.0        0.0        0.0     16.4       0.6       2.3       3.4       4.4    391.85
    10     1  2011    10     2     167.9    22.1      0.0    0.0   19.9    2.2     11.3      0.0   -9.90      0.5      0.5    100      0.0      0.0   100      0.5     0.5     100      0.0    0.41     -9     -9      0      0      0    10.0    10.0    100    -9.00      0.0      0.0      0.0   100     0.0     0.000    -9.9    0.000   -9.900      -9        0.00    0.000    0.000     167.9    143.8    0.41    70.9     170.3      47.1      31.6      23.3       9.7       9.5    0.000     0.000     0.000     0.000     0.000    0.41     0.00    0.00      0   -9.90   -9.00       32.5       12.9       12.6       13.0       12.7       12.4       12.3       12.2       12.1       12.1       12.0       12.0        0.0        0.0        0.0        0.0        0.0        0.0        0.0        0.0        0.0        0.0        0.0        0.0     22.1       0.5       1.3       2.5       3.6    391.85
    11     1  2011    11     2     172.7    25.5      0.0    0.0   22.4    3.1     17.2      0.0   -9.90      0.3      0.3    100      0.0      0.0   100      0.3     0.3     100      0.0    0.42     -9     -9      0      0      0    10.0    10.0    100    -9.00      0.0      0.0      0.0   100     0.0     0.000    -9.9    0.000   -9.900      -9        0.00    0.000    0.000     172.7    148.3    0.42    75.5     175.7      48.6      32.4      23.8      10.0       9.8    0.000     0.000     0.000     0.000     0.000    0.42     0.00    0.00      0   -9.90   -9.00       35.0       12.7       12.8       13.4       13.0       12.8       12.6       12.5       12.4       12.3       12.2       12.2        0.0        0.0        0.0        0.0        0.0        0.0        0.0        0.0        0.0        0.0        0.0        0.0     25.5       0.3       0.9       2.2       3.5    391.85
    12     1  2011    12     2     151.6     0.1      0.0    0.0    0.1    0.0     21.0      0.0   -9.90      0.2      0.2     97      0.0      0.0   100      0.2     0.2      97      0.0    0.43     -9     -9      0      0      0    10.0    10.0    100    -9.00      0.0      0.0      0.0   100     0.0     0.000    -9.9    0.000   -9.900      -9        0.00    0.000    0.000     151.6    127.0    0.43    55.1     181.1      50.0      33.2      24.4      10.4      10.1    0.000     0.000     0.000     0.000     0.000    0.43     0.00    0.00      0   -9.90   -9.00       12.4       12.6       12.8       13.6       13.2       12.9       12.7       12.6       12.5       12.4       12.3       12.3        0.0        0.0        0.0        0.0        0.0        0.0        0.0        0.0        0.0        0.0        0.0        0.0      0.1       0.2      -3.5      -0.6       2.3    391.85
    13     1  2011    13     2     149.2     6.7      0.0    0.0    6.7    0.0      8.8      0.0   -9.90      0.4      0.4    100      0.0      0.0   100      0.4     0.4     100      0.0    0.45     -9     -9      0      0      0    10.0    10.0    100    -9.00      0.0      0.0      0.0   100     0.0     0.000    -9.9    0.000   -9.900      -9        0.00    0.000    0.000     149.2    125.3    0.45    58.8     186.3      51.5      34.5      25.3      10.7      10.4    0.000     0.000     0.000     0.000     0.000    0.45     0.00    0.00      0   -9.90   -9.00       18.2       11.8       11.9       12.1       12.0       12.0       12.0       12.0       12.0       12.0       11.9       11.9        0.0        0.0        0.0        0.0        0.0        0.0        0.0        0.0        0.0        0.0        0.0        0.0      6.7       0.4      -3.3      -0.2       2.8    391.85
    14     1  2011    14     2     147.5     4.1      0.0    0.0    4.1    0.0      5.4      0.0   -9.90      0.4      0.4    100      0.0      0.0   100      0.4     0.4     100      0.0    0.46     -9     -9      0      0      0    10.0    10.0    100    -9.00      0.0      0.0      0.0   100     0.0     0.000    -9.9    0.000   -9.900      -9        0.00    0.000    0.000     147.5    123.8    0.46    59.0     191.3      52.9      35.4      26.0      11.0      10.7    0.000     0.000     0.000     0.000     0.000    0.46     0.00    0.00      0   -9.90   -9.00       16.1       12.4       12.1       12.2       12.1       12.0       11.9       11.9       11.9       11.9       11.9       11.9        0.0        0.0        0.0        0.0        0.0        0.0        0.0        0.0        0.0        0.0        0.0        0.0      4.1       0.4       1.6       2.2       2.9    391.85
    15     1  2011    15     2     153.5    11.4      0.0    0.0   11.1    0.3      4.4      0.0   -9.90      0.7      0.7    100      0.0      0.0   100      0.7     0.7     100      0.0    0.47     -9     -9      0      0      0    10.0    10.0    100    -9.00      0.0      0.0      0.0   100     0.0     0.000    -9.9    0.000   -9.900      -9        0.00    0.000    0.000     153.5    129.8    0.47    66.6     196.2      54.2      37.0      27.2      11.3      11.0    0.000     0.000     0.000     0.000     0.000    0.47     0.00    0.00      0   -9.90   -9.00       22.8       12.3       12.0       12.1       12.0       12.0       11.9       11.9       11.9       11.8       11.8       11.8        0.0        0.0        0.0        0.0        0.0        0.0        0.0        0.0        0.0        0.0        0.0        0.0     11.4       0.8       1.5       3.5       5.5    391.85
    16     1  2011    16     2     166.6    23.3      0.0    0.0   20.8    2.5      7.4      0.0   -9.90      0.4      0.4    100      0.0      0.0   100      0.4     0.4     100      0.0    0.48     -9     -9      0      0      0    10.0    10.0    100    -9.00      0.0      0.0      0.0   100     0.0     0.000    -9.9    0.000   -9.900      -9        0.00    0.000    0.000     166.6    142.7    0.48    80.0     201.1      55.6      37.2      27.4      11.6      11.3    0.000     0.000     0.000     0.000     0.000    0.48     0.00    0.00      0   -9.90   -9.00       33.4       12.7       12.4       12.6       12.3       12.2       12.1       12.0       12.0       12.0       11.9       11.9        0.0        0.0        0.0        0.0        0.0        0.0        0.0        0.0        0.0        0.0        0.0        0.0     23.3       0.4       4.8       5.9       7.0    391.85
    17     1  2011    17     2     162.3    12.3      0.0    0.0   11.9    0.4     15.9      0.0   -9.90      0.2      0.2    100      0.0      0.0   100      0.2     0.2     100      0.0    0.49     -9     -9      0      0      0    10.0    10.0    100    -9.00      0.0      0.0      0.0   100     0.0     0.000    -9.9    0.000   -9.900      -9        0.00    0.000    0.000     162.3    138.0    0.49    74.5     205.8      56.9      37.8      27.8      11.8      11.6    0.000     0.000     0.000     0.000     0.000    0.49     0.00    0.00      0   -9.90   -9.00       24.6       12.7       12.8       13.4       13.0       12.8       12.6       12.4       12.3       12.3       12.2       12.1        0.0        0.0        0.0        0.0        0.0        0.0        0.0        0.0        0.0        0.0        0.0        0.0     12.3       0.2       2.8       4.3       5.8    391.85
    18     1  2011    18     2     157.7     9.5      0.0    0.0    9.4    0.1     13.9      0.0   -9.90      0.0      0.0    100      0.0      0.0   100      0.0     0.0     100      0.0    0.50     -9     -9      0      0      0    10.0    10.0    100    -9.00      0.0      0.0      0.0   100     0.0     0.000    -9.9    0.000   -9.900      -9        0.00    0.000    0.000     157.7    133.6    0.50    72.4     210.4      58.1      38.3      28.1      12.1      11.8    0.000     0.000     0.000     0.000     0.000    0.50     0.00    0.00      0   -9.90   -9.00       22.3       12.8       12.5       12.8       12.6       12.5       12.3       12.3       12.2       12.2       12.1       12.1        0.0        0.0        0.0        0.0        0.0        0.0        0.0        0.0        0.0        0.0        0.0        0.0      9.5       0.0       1.6       2.7       3.7    391.85
    19     1  2011    19     2     147.1     0.3      0.0    0.0    0.3    0.0     11.0      0.0   -9.90      0.0      0.0    100      0.0      0.0   100      0.0     0.0     100      0.0    0.51     -9     -9      0      0      0    10.0    10.0    100    -9.00      0.0      0.0      0.0   100     0.0     0.000    -9.9    0.000   -9.900      -9        0.00    0.000    0.000     147.1    123.0    0.51    63.8     215.0      59.4      39.2      28.7      12.4      12.1    0.000     0.000     0.000     0.000     0.000    0.51     0.00    0.00      0   -9.90   -9.00       12.7       12.7       12.4       12.6       12.4       12.3       12.2       12.1       12.1       12.1       12.0       12.0        0.0        0.0        0.0        0.0        0.0        0.0        0.0        0.0        0.0        0.0        0.0        0.0      0.3       0.0      -2.1       0.1       2.2    391.85
    20     1  2011    20     2     141.8     0.1      0.0    0.0    0.1    0.0      5.3      0.0   -9.90      0.1      0.1    100      0.0      0.0   100      0.1     0.1     100      0.0    0.52     -9     -9      0      0      0    10.0    10.0    100    -9.00      0.0      0.0      0.0   100     0.0     0.000    -9.9    0.000   -9.900      -9        0.00    0.000    0.000     141.8    118.1    0.52    61.5     219.4      60.6      40.2      29.5      12.7      12.4    0.000     0.000     0.000     0.000     0.000    0.52     0.00    0.00      0   -9.90   -9.00       11.8       11.8       11.8       11.9       11.9       11.9       11.9       11.9       11.9       11.9       11.9       11.8        0.0        0.0        0.0        0.0        0.0        0.0        0.0        0.0        0.0        0.0        0.0        0.0      0.1       0.1      -5.0      -2.1       0.7    391.85
    21     1  2011    21     2     148.6     8.6      0.0    0.0    8.5    0.1      1.5      0.0   -9.90      0.2      0.2    100      0.0      0.0   100      0.2     0.2     100      0.0    0.53     -9     -9      0      0      0    10.0    10.0    100    -9.00      0.0      0.0      0.0   100     0.0     0.000    -9.9    0.000   -9.900      -9        0.00    0.000    0.000     148.6    125.1    0.53    70.4     223.8      61.8      41.1      30.2      12.9      12.6    0.000     0.000     0.000     0.000     0.000    0.53     0.00    0.00      0   -9.90   -9.00       20.2       11.7       11.7       11.8       11.8       11.8       11.7       11.7       11.7       11.7       11.7       11.7        0.0        0.0        0.0        0.0        0.0        0.0        0.0        0.0        0.0        0.0        0.0        0.0      8.6       0.2      -1.1       1.6       4.3    391.85
    22     1  2011    22     2     147.5     3.4      0.0    0.0    3.4    0.0      4.3      0.0   -9.90      0.3      0.3    100      0.0      0.0   100      0.3     0.3     100      0.0    0.54     -9     -9      0      0      0    10.0    10.0    100    -9.00      0.0      0.0      0.0   100     0.0     0.000    -9.9    0.000   -9.900      -9        0.00    0.000    0.000     147.5    123.8    0.54    69.3     228.2      63.0      42.1      31.0      13.2      12.9    0.000     0.000     0.000     0.000     0.000    0.54     0.00    0.00      0   -9.90   -9.00       15.4       12.5       12.2       12.3       12.2       12.1       12.0       11.9       11.9       11.9       11.8       11.8        0.0        0.0        0.0        0.0        0.0        0.0        0.0        0.0        0.0        0.0        0.0        0.0      3.4       0.3       1.3       3.4       5.4    391.85
    23     1  2011    23     2     142.9     0.1      0.0    0.0    0.1    0.0      4.6      0.0   -9.90      0.1      0.1    100      0.0      0.0   100      0.1     0.1     100      0.0    0.55     -9     -9      0      0      0    10.0    10.0    100    -9.00      0.0      0.0      0.0   100     0.0     0.000    -9.9    0.000   -9.900      -9        0.00    0.000    0.000     142.9    119.2    0.55    66.2     232.4      64.2      42.5      31.3      13.4      13.1    0.000     0.000     0.000     0.000     0.000    0.55     0.00    0.00      0   -9.90   -9.00       12.1       12.2       12.0       12.1       12.0       12.0       11.9       11.9       11.9       11.9       11.8       11.8        0.0        0.0        0.0        0.0        0.0        0.0        0.0        0.0        0.0        0.0        0.0        0.0      0.1       0.1       3.1       4.1       5.1    391.85
    24     1  2011    24     2     147.4     7.0      0.0    0.0    7.0    0.0      2.2      0.0   -9.90      0.3      0.3    100      0.0      0.0   100      0.3     0.3     100      0.0    0.56     -9     -9      0      0      0    10.0    10.0    100    -9.00      0.0      0.0      0.0   100     0.0     0.000    -9.9    0.000   -9.900      -9        0.00    0.000    0.000     147.4    123.9    0.56    72.5     236.6      65.4      43.7      32.1      13.7      13.4    0.000     0.000     0.000     0.000     0.000    0.56     0.00    0.00      0   -9.90   -9.00       18.6       11.8       11.8       11.8       11.8       11.8       11.8       11.8       11.8       11.8       11.8       11.8        0.0        0.0        0.0        0.0        0.0        0.0        0.0        0.0        0.0        0.0        0.0        0.0      7.0       0.3       2.5       3.8       5.1    391.85
    25     1  2011    25     2     143.6     0.0      0.0    0.0    0.0    0.0      3.7      0.0   -9.90      0.1      0.1    100      0.0      0.0   100      0.1     0.1     100      0.0    0.57     -9     -9      0      0      0    10.0    10.0    100    -9.00      0.0      0.0      0.0   100     0.0     0.000    -9.9    0.000   -9.900      -9        0.00    0.000    0.000     143.6    120.0    0.57    69.4     240.8      66.5      44.1      32.4      13.9      13.6    0.000     0.000     0.000     0.000     0.000    0.57     0.00    0.00      0   -9.90   -9.00       12.4       12.4       12.1       12.2       12.1       12.0       11.9       11.9       11.9       11.8       11.8       11.8        0.0        0.0        0.0        0.0        0.0        0.0        0.0        0.0        0.0        0.0        0.0        0.0      0.0       0.1      -3.4      -0.1       3.1    391.85
    26     1  2011    26     2     141.3     0.4      0.0    0.0    0.4    0.0      2.6      0.0   -9.90      0.1      0.1    100      0.0      0.0   100      0.1     0.1     100      0.0    0.58     -9     -9      0      0      0    10.0    10.0    100    -9.00      0.0      0.0      0.0   100     0.0     0.000    -9.9    0.000   -9.900      -9        0.00    0.000    0.000     141.3    117.8    0.58    68.6     244.9      67.6      44.8      33.0      14.2      13.9    0.000     0.000     0.000     0.000     0.000    0.58     0.00    0.00      0   -9.90   -9.00       12.1       11.8       11.8       11.9       11.8       11.8       11.8       11.8       11.8       11.8       11.8       11.8        0.0        0.0        0.0        0.0        0.0        0.0        0.0        0.0        0.0        0.0        0.0        0.0      0.4       0.1      -3.1      -1.4       0.2    391.85
    27     1  2011    27     2     140.3     0.0      0.0    0.0    0.0    0.0      1.1      0.0   -9.90      0.0      0.0    100      0.0      0.0   100      0.0     0.0     100      0.0    0.59     -9     -9      0      0      0    10.0    10.0    100    -9.00      0.0      0.0      0.0   100     0.0     0.000    -9.9    0.000   -9.900      -9        0.00    0.000    0.000     140.3    116.8    0.59    69.0     248.9      68.8      45.4      33.3      14.4      14.1    0.000     0.000     0.000     0.000     0.000    0.59     0.00    0.00      0   -9.90   -9.00       11.8       11.8       11.7       11.7       11.7       11.7       11.7       11.7       11.7       11.7       11.7       11.7        0.0        0.0        0.0        0.0        0.0        0.0        0.0        0.0        0.0        0.0        0.0        0.0      0.0       0.0      -5.0      -3.3      -1.6    391.85
    28     1  2011    28     2     140.0     0.4      0.0    0.0    0.4    0.0      0.4      0.0   -9.90      0.3      0.3    100      0.0      0.0   100      0.3     0.3     100      0.0    0.60     -9     -9      0      0      0    10.0    10.0    100    -9.00      0.0      0.0      0.0   100     0.0     0.000    -9.9    0.000   -9.900      -9        0.00    0.000    0.000     140.0    116.6    0.60    70.0     252.9      69.9      46.7      34.4      14.7      14.3    0.000     0.000     0.000     0.000     0.000    0.60     0.00    0.00      0   -9.90   -9.00       11.8       11.7       11.7       11.7       11.7       11.7       11.7       11.7       11.7       11.7       11.7       11.7        0.0        0.0        0.0        0.0        0.0        0.0        0.0        0.0        0.0        0.0        0.0        0.0      0.4       0.3      -4.6      -1.3       2.0    391.85
    29     1  2011    29     2     142.6     3.2      0.0    0.0    3.2    0.0      0.1      0.0   -9.90      0.5      0.5    100      0.0      0.0   100      0.5     0.5     100      0.0    0.61     -9     -9      0      0      0    10.0    10.0    100    -9.00      0.0      0.0      0.0   100     0.0     0.000    -9.9    0.000   -9.900      -9        0.00    0.000    0.000     142.6    119.2    0.61    73.8     256.8      70.9      47.8      35.2      15.0      14.6    0.000     0.000     0.000     0.000     0.000    0.61     0.00    0.00      0   -9.90   -9.00       14.5       11.7       11.7       11.7       11.7       11.7       11.7       11.7       11.7       11.7       11.7       11.7        0.0        0.0        0.0        0.0        0.0        0.0        0.0        0.0        0.0        0.0        0.0        0.0      3.2       0.5       0.5       2.5       4.5    391.85
    30     1  2011    30     2     142.7     1.6      0.0    0.0    1.6    0.0      1.3      0.0   -9.90      0.3      0.3    100      0.0      0.0   100      0.3     0.3     100      0.0    0.62     -9     -9      0      0      0    10.0    10.0    100    -9.00      0.0      0.0      0.0   100     0.0     0.000    -9.9    0.000   -9.900      -9        0.00    0.000    0.000     142.7    119.2    0.62    74.6     260.7      72.0      48.1      35.4      15.2      14.8    0.000     0.000     0.000     0.000     0.000    0.62     0.00    0.00      0   -9.90   -9.00       13.3       12.0       11.9       11.9       11.8       11.8       11.8       11.8       11.8       11.8       11.7       11.7        0.0        0.0        0.0        0.0        0.0        0.0        0.0        0.0        0.0        0.0        0.0        0.0      1.6       0.3      -2.7       0.2       3.2    391.85
    31     1  2011    31     2     150.5     9.7      0.0    0.0    9.5    0.2      1.6      0.0   -9.90      0.2      0.2    100      0.0      0.0   100      0.2     0.2     100      0.0    0.63     -9     -9      0      0      0    10.0    10.0    100    -9.00      0.0      0.0      0.0   100     0.0     0.000    -9.9    0.000   -9.900      -9        0.00    0.000    0.000     150.5    127.0    0.63    83.4     264.6      73.1      48.7      35.8      15.4      15.0    0.000     0.000     0.000     0.000     0.000    0.63     0.00    0.00      0   -9.90   -9.00       21.4       11.9       11.8       11.9       11.8       11.8       11.8       11.8       11.8       11.8       11.8       11.7        0.0        0.0        0.0        0.0        0.0        0.0        0.0        0.0        0.0        0.0        0.0        0.0      9.7       0.2       2.3       3.5       4.7    391.85
     1     2  2011    32     2     157.8    13.3      0.0    0.0   12.8    0.5      5.2      0.0   -9.90      0.2      0.2    100      0.0      0.0   100      0.2     0.2     100      0.0    0.64     -9     -9      0      0      0    10.0    10.0    100    -9.00      0.0      0.0      0.0   100     0.0     0.000    -9.9    0.000   -9.900      -9        0.00    0.000    0.000     157.8    134.1    0.64    91.0     268.4      74.1      49.4      36.3      15.6      15.3    0.000     0.000     0.000     0.000     0.000    0.64     0.00    0.00      0   -9.90   -9.00       25.5       12.6       12.3       12.4       12.2       12.1       12.0       12.0       11.9       11.9       11.9       11.9        0.0        0.0        0.0        0.0        0.0        0.0        0.0        0.0        0.0        0.0        0.0        0.0     13.3       0.2       4.1       4.8       5.4    391.85
     2     2  2011    33     2     163.0    16.6      0.0    0.0   15.6    1.0     10.0      0.0   -9.90      0.4      0.4    100      0.0      0.0   100      0.4     0.4     100      0.0    0.65     -9     -9      0      0      0    10.0    10.0    100    -9.00      0.0      0.0      0.0   100     0.0     0.000    -9.9    0.000   -9.900      -9        0.00    0.000    0.000     163.0    139.0    0.65    96.3     272.1      75.2      50.5      37.2      15.9      15.5    0.000     0.000     0.000     0.000     0.000    0.65     0.00    0.00      0   -9.90   -9.00       28.3       12.8       12.5       12.8       12.5       12.4       12.2       12.2       12.1       12.1       12.0       12.0        0.0        0.0        0.0        0.0        0.0        0.0        0.0        0.0        0.0        0.0        0.0        0.0     16.6       0.4       3.4       4.2       5.1    391.85
     3     2  2011    34     2     158.3     9.7      0.0    0.0    9.5    0.2     13.8      0.0   -9.90      0.5      0.5    100      0.0      0.0   100      0.5     0.5     100      0.0    0.66     -9     -9      0      0      0    10.0    10.0    100    -9.00      0.0      0.0      0.0   100     0.0     0.000    -9.9    0.000   -9.900      -9        0.00    0.000    0.000     158.3    134.1    0.66    92.0     275.9      76.2      51.4      37.9      16.1      15.7    0.000     0.000     0.000     0.000     0.000    0.66     0.00    0.00      0   -9.90   -9.00       22.0       12.9       12.6       13.1       12.8       12.5       12.4       12.3       12.2       12.2       12.1       12.1        0.0        0.0        0.0        0.0        0.0        0.0        0.0        0.0        0.0        0.0        0.0        0.0      9.7       0.5       2.5       3.1       3.8    391.85
     4     2  2011    35     2     154.9     8.6      0.0    0.0    8.5    0.1     11.3      0.0   -9.90      0.7      0.7    100      0.0      0.0   100      0.7     0.7     100      0.0    0.67     -9     -9      0      0      0    10.0    10.0    100    -9.00      0.0      0.0      0.0   100     0.0     0.000    -9.9    0.000   -9.900      -9        0.00    0.000    0.000     154.9    130.8    0.67    90.2     279.6      77.2      52.7      38.9      16.4      15.9    0.000     0.000     0.000     0.000     0.000    0.67     0.00    0.00      0   -9.90   -9.00       20.6       12.7       12.4       12.6       12.4       12.3       12.2       12.2       12.1       12.1       12.0       12.0        0.0        0.0        0.0        0.0        0.0        0.0        0.0        0.0        0.0        0.0        0.0        0.0      8.6       0.8       2.0       3.4       4.8    391.85
     5     2  2011    36     2     156.6    11.1      0.0    0.0   10.8    0.3      8.9      0.0   -9.90      0.3      0.3    100      0.0      0.0   100      0.3     0.3     100      0.0    0.67     -9     -9      0      0      0    10.0    10.0    100    -9.00      0.0      0.0      0.0   100     0.0     0.000    -9.9    0.000   -9.900      -9        0.00    0.000    0.000     156.6    132.7    0.67    93.4     283.2      78.2      52.3      38.5      16.5      16.1    0.000     0.000     0.000     0.000     0.000    0.67     0.00    0.00      0   -9.90   -9.00       23.4       12.6       12.3       12.5       12.3       12.2       12.1       12.1       12.0       12.0       12.0       11.9        0.0        0.0        0.0        0.0        0.0        0.0        0.0        0.0        0.0        0.0        0.0        0.0     11.1       0.3       1.4       2.7       4.0    391.85
     6     2  2011    37     2     153.5     6.9      0.0    0.0    6.9    0.0      9.7      0.0   -9.90      0.3      0.3    100      0.0      0.0   100      0.3     0.3     100      0.0    0.68     -9     -9      0      0      0    10.0    10.0    100    -9.00      0.0      0.0      0.0   100     0.0     0.000    -9.9    0.000   -9.900      -9        0.00    0.000    0.000     153.5    129.5    0.68    91.1     286.8      79.2      53.0      39.0      16.7      16.3    0.000     0.000     0.000     0.000     0.000    0.68     0.00    0.00      0   -9.90   -9.00       19.3       12.8       12.4       12.7       12.4       12.3       12.2       12.1       12.1       12.0       12.0       12.0        0.0        0.0        0.0        0.0        0.0        0.0        0.0        0.0        0.0        0.0        0.0        0.0      6.9       0.3       2.7       3.7       4.7    391.85
     7     2  2011    38     2     152.1     7.1      0.0    0.0    7.1    0.0      8.1      0.0   -9.90      0.4      0.4    100      0.0      0.0   100      0.4     0.4     100      0.0    0.69     -9     -9      0      0      0    10.0    10.0    100    -9.00      0.0      0.0      0.0   100     0.0     0.000    -9.9    0.000   -9.900      -9        0.00    0.000    0.000     152.1    128.3    0.69    91.2     290.4      80.2      53.9      39.7      17.0      16.6    0.000     0.000     0.000     0.000     0.000    0.69     0.00    0.00      0   -9.90   -9.00       19.4       12.6       12.2       12.4       12.2       12.2       12.1       12.0       12.0       12.0       11.9       11.9        0.0        0.0        0.0        0.0        0.0        0.0        0.0        0.0        0.0        0.0        0.0        0.0      7.1       0.4       2.1       3.0       4.0    391.85
     8     2  2011    39     2     150.9     6.2      0.0    0.0    6.2    0.0      7.1      0.0   -9.90      0.4      0.4    100      0.0      0.0   100      0.4     0.4     100      0.0    0.70     -9     -9      0      0      0    10.0    10.0    100    -9.00      0.0      0.0      0.0   100     0.0     0.000    -9.9    0.000   -9.900      -9        0.00    0.000    0.000     150.9    127.1    0.70    91.1     294.0      81.2      54.6      40.2      17.2      16.8    0.000     0.000     0.000     0.000     0.000    0.70     0.00    0.00      0   -9.90   -9.00       18.4       12.6       12.2       12.4       12.2       12.1       12.0       12.0       12.0       11.9       11.9       11.9        0.0        0.0        0.0        0.0        0.0        0.0        0.0        0.0        0.0        0.0        0.0        0.0      6.2       0.4       2.3       3.4       4.4    391.85
     9     2  2011    40     2     146.7     2.6      0.0    0.0    2.6    0.0      6.4      0.0   -9.90      0.4      0.4    100      0.0      0.0   100      0.4     0.4     100      0.0    0.71     -9     -9      0      0      0    10.0    10.0    100    -9.00      0.0      0.0      0.0   100     0.0     0.000    -9.9    0.000   -9.900      -9        0.00    0.000    0.000     146.7    122.9    0.71    87.9     297.5      82.2      55.2      40.7      17.4      17.0    0.000     0.000     0.000     0.000     0.000    0.71     0.00    0.00      0   -9.90   -9.00       14.4       12.5       12.2       12.3       12.2       12.1       12.0       12.0       12.0       11.9       11.9       11.9        0.0        0.0        0.0        0.0        0.0        0.0        0.0        0.0        0.0        0.0        0.0        0.0      2.6       0.4      -1.7       0.6       2.9    391.85
    10     2  2011    41     2     155.1    13.7      0.0    0.0   13.1    0.6      4.3      0.0   -9.90      0.4      0.4    100      0.0      0.0   100      0.4     0.4     100      0.0    0.72     -9     -9      0      0      0    10.0    10.0    100    -9.00      0.0      0.0      0.0   100     0.0     0.000    -9.9    0.000   -9.900      -9        0.00    0.000    0.000     155.1    131.5    0.72    97.8     301.0      83.1      55.9      41.2      17.6      17.2    0.000     0.000     0.000     0.000     0.000    0.72     0.00    0.00      0   -9.90   -9.00       25.0       12.1       11.9       12.0       11.9       11.9       11.9       11.9       11.9       11.8       11.8       11.8        0.0        0.0        0.0        0.0        0.0        0.0        0.0        0.0        0.0        0.0        0.0        0.0     13.7       0.4       2.3       3.6       5.0    391.85
    11     2  2011    42     2     146.4     0.0      0.0    0.0    0.0    0.0      8.1      0.0   -9.90      0.6      0.6    100      0.0      0.0   100      0.6     0.6     100      0.0    0.72     -9     -9      0      0      0    10.0    10.0    100    -9.00      0.0      0.0      0.0   100     0.0     0.000    -9.9    0.000   -9.900      -9        0.00    0.000    0.000     146.4    122.5    0.72    89.3     304.5      84.1      57.2      42.2      17.9      17.4    0.000     0.000     0.000     0.000     0.000    0.72     0.00    0.00      0   -9.90   -9.00       12.2       12.8       12.5       12.7       12.4       12.3       12.2       12.1       12.0       12.0       12.0       11.9        0.0        0.0        0.0        0.0        0.0        0.0        0.0        0.0        0.0        0.0        0.0        0.0      0.0       0.7      -5.8      -1.2       3.3    391.85
    12     2  2011    43     2     141.3     0.0      0.0    0.0    0.0    0.0      4.7      0.0   -9.90      0.5      0.5    100      0.0      0.0   100      0.5     0.5     100      0.0    0.73     -9     -9      0      0      0    10.0    10.0    100    -9.00      0.0      0.0      0.0   100     0.0     0.000    -9.9    0.000   -9.900      -9        0.00    0.000    0.000     141.3    117.6    0.73    85.8     307.9      85.1      57.4      42.3      18.1      17.6    0.000     0.000     0.000     0.000     0.000    0.73     0.00    0.00      0   -9.90   -9.00       11.3       11.9       11.8       11.9       11.9       11.9       11.9       11.9       11.9       11.8       11.8       11.8        0.0        0.0        0.0        0.0        0.0        0.0        0.0        0.0        0.0        0.0        0.0        0.0      0.0       0.5      -8.9      -5.1      -1.3    391.85
    13     2  2011    44     2     138.7     0.0      0.0    0.0    0.0    0.0      1.4      0.0   -9.90      1.2      1.2    100      0.0      0.0   100      1.2     1.2     100      0.0    0.74     -9     -9      0      0      0    10.0    10.0    100    -9.00      0.0      0.0      0.0   100     0.0     0.000    -9.9    0.000   -9.900      -9        0.00    0.000    0.000     138.7    115.2    0.74    84.7     311.4      86.0      60.0      44.4      18.4      17.8    0.000     0.000     0.000     0.000     0.000    0.74     0.00    0.00      0   -9.90   -9.00       10.1       11.7       11.7       11.8       11.8       11.7       11.7       11.7       11.7       11.7       11.7       11.7        0.0        0.0        0.0        0.0        0.0        0.0        0.0        0.0        0.0        0.0        0.0        0.0      0.0       1.3      -3.6      -1.1       1.3    391.85
    14     2  2011    45     2     137.8     0.9      0.0    0.0    0.9    0.0      0.3      0.0   -9.90      1.4      1.4     97      0.0      0.0   100      1.4     1.4      97      0.0    0.75     -9     -9      0      0      0    10.0    10.0    100    -9.00      0.0      0.0      0.0   100     0.0     0.000    -9.9    0.000   -9.900      -9        0.00    0.000    0.000     137.8    114.4    0.75    84.9     314.8      86.9      61.4      45.5      18.7      18.0    0.000     0.000     0.000     0.000     0.000    0.75     0.00    0.00      0   -9.90   -9.00        9.6       11.7       11.7       11.7       11.7       11.7       11.7       11.7       11.7       11.7       11.7       11.7        0.0        0.0        0.0        0.0        0.0        0.0        0.0        0.0        0.0        0.0        0.0        0.0      0.9       1.6      -2.5      -0.8       0.8    391.85
    15     2  2011    46     2     138.6     1.8      0.0    0.0    1.8    0.0      0.1      0.0   -9.90      0.9      0.9    100      0.0      0.0   100      0.9     0.9     100      0.0    0.76     -9     -9      0      0      0    10.0    10.0    100    -9.00      0.0      0.0      0.0   100     0.0     0.000    -9.9    0.000   -9.900      -9        0.00    0.000    0.000     138.6    115.2    0.76    86.7     318.1      87.9      60.5      44.8      18.8      18.2    0.000     0.000     0.000     0.000     0.000    0.76     0.00    0.00      0   -9.90   -9.00       10.5       11.7       11.7       11.7       11.7       11.7       11.7       11.7       11.7       11.7       11.7       11.7        0.0        0.0        0.0        0.0        0.0        0.0        0.0        0.0        0.0        0.0        0.0        0.0      1.8       1.0      -2.9      -2.4      -1.9    391.85
    16     2  2011    47     2     138.1     0.3      0.0    0.0    0.3    0.0      0.0      0.0   -9.90      0.8      0.8     94      0.0      0.0   100      0.8     0.8      94      0.0    0.76     -9     -9      0      0      0    10.0    10.0    100    -9.00      0.0      0.0      0.0   100     0.0     0.000    -9.9    0.000   -9.900      -9        0.00    0.000    0.000     138.1    114.7    0.76    87.2     321.5      88.8      60.9      45.0      19.0      18.4    0.000     0.000     0.000     0.000     0.000    0.76     0.00    0.00      0   -9.90   -9.00       10.0       11.7       11.7       11.7       11.7       11.7       11.7       11.7       11.7       11.7       11.7       11.7        0.0        0.0        0.0        0.0        0.0        0.0        0.0        0.0        0.0        0.0        0.0        0.0      0.3       0.9      -2.7      -1.8      -0.9    391.85
    17     2  2011    48     2     137.9     0.5      0.0    0.0    0.5    0.0      0.0      0.0   -9.90      0.7      0.7     98      0.0      0.0   100      0.7     0.7      98      0.0    0.77     -9     -9      0      0      0    10.0    10.0    100    -9.00      0.0      0.0      0.0   100     0.0     0.000    -9.9    0.000   -9.900      -9        0.00    0.000    0.000     137.9    114.5    0.77    87.9     324.8      89.7      61.3      45.3      19.1      18.6    0.000     0.000     0.000     0.000     0.000    0.77     0.00    0.00      0   -9.90   -9.00        9.8       11.7       11.7       11.7       11.7       11.7       11.7       11.7       11.7       11.7       11.7       11.7        0.0        0.0        0.0        0.0        0.0        0.0        0.0        0.0        0.0        0.0        0.0        0.0      0.5       0.8      -2.2      -0.7       0.8    391.85
    18     2  2011    49     2     137.6     0.0      0.0    0.0    0.0    0.0      0.0      0.0   -9.90      0.4      0.3     87      0.0      0.0   100      0.4     0.3      87      0.0    0.78     -9     -9      0      0      0    10.0    10.0    100    -9.00      0.0      0.0      0.0   100     0.0     0.000    -9.9    0.000   -9.900      -9        0.00    0.000    0.000     137.6    114.2    0.78    88.4     328.1      90.6      60.9      44.9      19.3      18.8    0.000     0.000     0.000     0.000     0.000    0.78     0.00    0.00      0   -9.90   -9.00        9.5       11.7       11.7       11.7       11.7       11.7       11.7       11.7       11.7       11.7       11.7       11.7        0.0        0.0        0.0        0.0        0.0        0.0        0.0        0.0        0.0        0.0        0.0        0.0      0.0       0.4      -4.9      -2.4       0.1    391.85
    19     2  2011    50     2     137.3     0.0      0.0    0.0    0.0    0.0      0.0      0.0   -9.90      0.5      0.4     79      0.0      0.0   100      0.5     0.4      79      0.0    0.79     -9     -9      0      0      0    10.0    10.0    100    -9.00      0.0      0.0      0.0   100     0.0     0.000    -9.9    0.000   -9.900      -9        0.00    0.000    0.000     137.3    113.9    0.79    89.0     331.4      91.5      61.8      45.6      19.5      19.0    0.000     0.000     0.000     0.000     0.000    0.79     0.00    0.00      0   -9.90   -9.00        9.1       11.7       11.7       11.7       11.7       11.7       11.7       11.7       11.7       11.7       11.7       11.7        0.0        0.0        0.0        0.0        0.0        0.0        0.0        0.0        0.0        0.0        0.0        0.0      0.0       0.5      -7.3      -4.5      -1.8    391.85
    20     2  2011    51     2     136.9     0.0      0.0    0.0    0.0    0.0      0.0      0.0   -9.90      0.5      0.3     72      0.0      0.0   100      0.5     0.3      72      0.0    0.80     -9     -9      0      0      0    10.0    10.0    100    -9.00      0.0      0.0      0.0   100     0.0     0.000    -9.9    0.000   -9.900      -9        0.00    0.000    0.000     136.9    113.5    0.80    89.6     334.6      92.4      62.4      46.0      19.7      19.2    0.000     0.000     0.000     0.000     0.000    0.80     0.00    0.00      0   -9.90   -9.00        8.8       11.7       11.7       11.7       11.7       11.7       11.7       11.7       11.7       11.7       11.7       11.7        0.0        0.0        0.0        0.0        0.0        0.0        0.0        0.0        0.0        0.0        0.0        0.0      0.0       0.5      -6.3      -3.8      -1.4    391.85
    21     2  2011    52     2     136.6     0.0      0.0    0.0    0.0    0.0      0.0      0.0   -9.90      0.5      0.4     65      0.0      0.0   100      0.5     0.4      65      0.0    0.80     -9     -9      0      0      0    10.0    10.0    100    -9.00      0.0      0.0      0.0   100     0.0     0.000    -9.9    0.000   -9.900      -9        0.00    0.000    0.000     136.6    113.2    0.80    90.1     337.9      93.3      63.2      46.7      19.9      19.3    0.000     0.000     0.000     0.000     0.000    0.80     0.00    0.00      0   -9.90   -9.00        8.4       11.7       11.7       11.7       11.7       11.7       11.7       11.7       11.7       11.7       11.7       11.7        0.0        0.0        0.0        0.0        0.0        0.0        0.0        0.0        0.0        0.0        0.0        0.0      0.0       0.6      -6.6      -3.8      -1.1    391.85
    22     2  2011    53     2     136.2     0.0      0.0    0.0    0.0    0.0      0.0      0.0   -9.90      0.7      0.4     58      0.0      0.0   100      0.7     0.4      58      0.0    0.81     -9     -9      0      0      0    10.0    10.0    100    -9.00      0.0      0.0      0.0   100     0.0     0.000    -9.9    0.000   -9.900      -9        0.00    0.000    0.000     136.2    112.8    0.81    90.6     341.1      94.2      64.4      47.6      20.1      19.5    0.000     0.000     0.000     0.000     0.000    0.81     0.00    0.00      0   -9.90   -9.00        8.0       11.7       11.7       11.7       11.7       11.7       11.7       11.7       11.7       11.7       11.7       11.7        0.0        0.0        0.0        0.0        0.0        0.0        0.0        0.0        0.0        0.0        0.0        0.0      0.0       0.8      -6.2      -4.0      -1.9    391.85
    23     2  2011    54     2     135.7     0.5      0.0    0.0    0.5    0.0      0.0      0.0   -9.90      1.0      0.9     95      0.0      0.0   100      1.0     0.9      95      0.0    0.82     -9     -9      0      0      0    10.0    10.0    100    -9.00      0.0      0.0      0.0   100     0.0     0.000    -9.9    0.000   -9.900      -9        0.00    0.000    0.000     135.7    112.3    0.82    91.0     344.3      95.1      65.8      48.7      20.4      19.7    0.000     0.000     0.000     0.000     0.000    0.82     0.00    0.00      0   -9.90   -9.00        7.6       11.7       11.7       11.7       11.7       11.7       11.7       11.7       11.7       11.7       11.7       11.7        0.0        0.0        0.0        0.0        0.0        0.0        0.0        0.0        0.0        0.0        0.0        0.0      0.5       1.1      -7.1      -4.1      -1.1    391.85
    24     2  2011    55     2     140.7     6.0      0.0    0.0    6.0    0.0      0.0      0.0   -9.90      1.0      1.0    100      0.0      0.0   100      1.0     1.0     100      0.0    0.83     -9     -9      0      0      0    10.0    10.0    100    -9.00      0.0      0.0      0.0   100     0.0     0.000    -9.9    0.000   -9.900      -9        0.00    0.000    0.000     140.7    117.3    0.83    96.9     347.4      96.0      66.4      49.2      20.6      19.9    0.000     0.000     0.000     0.000     0.000    0.83     0.00    0.00      0   -9.90   -9.00       12.7       11.7       11.7       11.7       11.7       11.7       11.7       11.7       11.7       11.7       11.7       11.7        0.0        0.0        0.0        0.0        0.0        0.0        0.0        0.0        0.0        0.0        0.0        0.0      6.0       1.1      -1.5       0.9       3.2    391.85
    25     2  2011    56     2     145.4     5.7      0.0    0.0    5.7    0.0      0.4      0.0   -9.90      0.6      0.6    100      0.0      0.0   100      0.6     0.6     100      0.0    0.83     -9     -9      0      0      0    10.0    10.0    100    -9.00      0.0      0.0      0.0   100     0.0     0.000    -9.9    0.000   -9.900      -9        0.00    0.000    0.000     145.4    122.0    0.83   102.4     350.6      96.8      65.9      48.7      20.7      20.1    0.000     0.000     0.000     0.000     0.000    0.83     0.00    0.00      0   -9.90   -9.00       17.0       11.8       11.8       11.8       11.7       11.7       11.7       11.7       11.7       11.7       11.7       11.7        0.0        0.0        0.0        0.0        0.0        0.0        0.0        0.0        0.0        0.0        0.0        0.0      5.7       0.7       3.4       4.9       6.4    391.85
    26     2  2011    57     2     151.5     9.1      0.0    0.0    9.0    0.1      2.6      0.0   -9.90      0.4      0.4    100      0.0      0.0   100      0.4     0.4     100      0.0    0.84     -9     -9      0      0      0    10.0    10.0    100    -9.00      0.0      0.0      0.0   100     0.0     0.000    -9.9    0.000   -9.900      -9        0.00    0.000    0.000     151.5    127.9    0.84   109.0     353.7      97.7      65.7      48.4      20.8      20.3    0.000     0.000     0.000     0.000     0.000    0.84     0.00    0.00      0   -9.90   -9.00       21.1       12.3       12.0       12.1       12.0       11.9       11.9       11.8       11.8       11.8       11.8       11.8        0.0        0.0        0.0        0.0        0.0        0.0        0.0        0.0        0.0        0.0        0.0        0.0      9.1       0.4       2.3       3.8       5.3    391.85
    27     2  2011    58     2     152.5     7.4      0.0    0.0    7.4    0.0      6.1      0.0   -9.90      0.3      0.3    100      0.0      0.0   100      0.3     0.3     100      0.0    0.85     -9     -9      0      0      0    10.0    10.0    100    -9.00      0.0      0.0      0.0   100     0.0     0.000    -9.9    0.000   -9.900      -9        0.00    0.000    0.000     152.5    128.7    0.85   110.5     356.8      98.5      66.0      48.6      21.0      20.5    0.000     0.000     0.000     0.000     0.000    0.85     0.00    0.00      0   -9.90   -9.00       19.8       12.7       12.3       12.5       12.2       12.1       12.0       12.0       11.9       11.9       11.9       11.9        0.0        0.0        0.0        0.0        0.0        0.0        0.0        0.0        0.0        0.0        0.0        0.0      7.4       0.3       1.1       1.8       2.5    391.85
    28     2  2011    59     2     145.1     0.0      0.0    0.0    0.0    0.0      7.1      0.0   -9.90      0.3      0.3    100      0.0      0.0   100      0.3     0.3     100      0.0    0.85     -9     -9      0      0      0    10.0    10.0    100    -9.00      0.0      0.0      0.0   100     0.0     0.000    -9.9    0.000   -9.900      -9        0.00    0.000    0.000     145.1    121.3    0.85   103.9     359.9      99.4      66.5      49.1      21.2      20.7    0.000     0.000     0.000     0.000     0.000    0.85     0.00    0.00      0   -9.90   -9.00       12.3       12.6       12.2       12.4       12.2       12.1       12.1       12.0       12.0       11.9       11.9       11.9        0.0        0.0        0.0        0.0        0.0        0.0        0.0        0.0        0.0        0.0        0.0        0.0      0.0       0.3       0.3       2.2       4.2    391.85
     1     3  2011    60     2     141.2     0.3      0.0    0.0    0.3    0.0      3.8      0.0   -9.90      0.5      0.5    100      0.0      0.0   100      0.5     0.5     100      0.0    0.86     -9     -9      0      0      0    10.0    10.0    100    -9.00      0.0      0.0      0.0   100     0.0     0.000    -9.9    0.000   -9.900      -9        0.00    0.000    0.000     141.2    117.6    0.86   101.3     363.0     100.3      67.7      50.0      21.4      20.8    0.000     0.000     0.000     0.000     0.000    0.86     0.00    0.00      0   -9.90   -9.00       11.6       11.8       11.8       11.9       11.9       11.9       11.8       11.8       11.8       11.8       11.8       11.8        0.0        0.0        0.0        0.0        0.0        0.0        0.0        0.0        0.0        0.0        0.0        0.0      0.3       0.5      -0.2       1.8       3.9    391.85
     2     3  2011    61     2     141.2     1.6      0.0    0.0    1.6    0.0      1.1      0.0   -9.90      0.5      0.5    100      0.0      0.0   100      0.5     0.5     100      0.0    0.87     -9     -9      0      0      0    10.0    10.0    100    -9.00      0.0      0.0      0.0   100     0.0     0.000    -9.9    0.000   -9.900      -9        0.00    0.000    0.000     141.2    117.7    0.87   102.4     366.1     101.1      68.3      50.4      21.6      21.0    0.000     0.000     0.000     0.000     0.000    0.87     0.00    0.00      0   -9.90   -9.00       12.8       11.7       11.7       11.7       11.7       11.7       11.7       11.7       11.7       11.7       11.7       11.7        0.0        0.0        0.0        0.0        0.0        0.0        0.0        0.0        0.0        0.0        0.0        0.0      1.6       0.5      -0.1       2.2       4.6    391.85
     3     3  2011    62     2     140.9     0.8      0.0    0.0    0.8    0.0      0.7      0.0   -9.90      0.4      0.4    100      0.0      0.0   100      0.4     0.4     100      0.0    0.88     -9     -9      0      0      0    10.0    10.0    100    -9.00      0.0      0.0      0.0   100     0.0     0.000    -9.9    0.000   -9.900      -9        0.00    0.000    0.000     140.9    117.4    0.88   103.0     369.1     101.9      68.5      50.6      21.7      21.2    0.000     0.000     0.000     0.000     0.000    0.88     0.00    0.00      0   -9.90   -9.00       12.3       11.8       11.8       11.8       11.8       11.7       11.7       11.7       11.7       11.7       11.7       11.7        0.0        0.0        0.0        0.0        0.0        0.0        0.0        0.0        0.0        0.0        0.0        0.0      0.8       0.4       0.7       3.2       5.7    391.85
     4     3  2011    63     2     143.9     4.0      0.0    0.0    4.0    0.0      0.6      0.0   -9.90      0.4      0.4    100      0.0      0.0   100      0.4     0.4     100      0.0    0.88     -9     -9      0      0      0    10.0    10.0    100    -9.00      0.0      0.0      0.0   100     0.0     0.000    -9.9    0.000   -9.900      -9        0.00    0.000    0.000     143.9    120.5    0.88   106.8     372.2     102.8      69.1      51.0      21.9      21.4    0.000     0.000     0.000     0.000     0.000    0.88     0.00    0.00      0   -9.90   -9.00       15.5       11.8       11.7       11.8       11.7       11.7       11.7       11.7       11.7       11.7       11.7       11.7        0.0        0.0        0.0        0.0        0.0        0.0        0.0        0.0        0.0        0.0        0.0        0.0      4.0       0.4      -1.1       2.5       6.2    391.85
     5     3  2011    64     2     141.2     0.2      0.0    0.0    0.2    0.0      1.9      0.0   -9.90      1.1      1.0     94      0.0      0.0   100      1.1     1.0      94      0.0    0.89     -9     -9      0      0      0    10.0    10.0    100    -9.00      0.0      0.0      0.0   100     0.0     0.000    -9.9    0.000   -9.900      -9        0.00    0.000    0.000     141.2    117.6    0.89   104.8     375.2     103.6      72.0      53.3      22.3      21.5    0.000     0.000     0.000     0.000     0.000    0.89     0.00    0.00      0   -9.90   -9.00       11.2       12.1       11.9       12.0       12.0       11.9       11.8       11.8       11.8       11.8       11.8       11.8        0.0        0.0        0.0        0.0        0.0        0.0        0.0        0.0        0.0        0.0        0.0        0.0      0.2       1.2      -1.8       1.9       5.5    391.85
     6     3  2011    65     2     139.3     0.0      0.0    0.0    0.0    0.0      1.4      0.0   -9.90      0.7      0.5     74      0.0      0.0   100      0.7     0.5      74      0.0    0.90     -9     -9      0      0      0    10.0    10.0    100    -9.00      0.0      0.0      0.0   100     0.0     0.000    -9.9    0.000   -9.900      -9        0.00    0.000    0.000     139.3    115.8    0.90   103.8     378.2     104.4      71.4      52.8      22.4      21.7    0.000     0.000     0.000     0.000     0.000    0.90     0.00    0.00      0   -9.90   -9.00       10.6       11.8       11.7       11.8       11.8       11.8       11.8       11.8       11.7       11.7       11.7       11.7        0.0        0.0        0.0        0.0        0.0        0.0        0.0        0.0        0.0        0.0        0.0        0.0      0.0       0.8      -5.5      -1.4       2.8    391.85
     7     3  2011    66     2     143.6     5.3      0.0    0.0    5.3    0.0      0.4      0.0   -9.90      0.5      0.5    100      0.0      0.0   100      0.5     0.5     100      0.0    0.90     -9     -9      0      0      0    10.0    10.0    100    -9.00      0.0      0.0      0.0   100     0.0     0.000    -9.9    0.000   -9.900      -9        0.00    0.000    0.000     143.6    120.2    0.90   109.0     381.2     105.3      71.4      52.7      22.5      21.9    0.000     0.000     0.000     0.000     0.000    0.90     0.00    0.00      0   -9.90   -9.00       15.5       11.7       11.7       11.7       11.7       11.7       11.7       11.7       11.7       11.7       11.7       11.7        0.0        0.0        0.0        0.0        0.0        0.0        0.0        0.0        0.0        0.0        0.0        0.0      5.3       0.6      -0.3       2.0       4.3    391.85
     8     3  2011    67     2     150.5     9.4      0.0    0.0    9.3    0.1      1.7      0.0   -9.90      0.6      0.6    100      0.0      0.0   100      0.6     0.6     100      0.0    0.91     -9     -9      0      0      0    10.0    10.0    100    -9.00      0.0      0.0      0.0   100     0.0     0.000    -9.9    0.000   -9.900      -9        0.00    0.000    0.000     150.5    127.0    0.91   116.7     384.1     106.1      72.2      53.4      22.7      22.1    0.000     0.000     0.000     0.000     0.000    0.91     0.00    0.00      0   -9.90   -9.00       21.0       12.1       11.9       12.0       11.9       11.8       11.8       11.8       11.8       11.8       11.8       11.7        0.0        0.0        0.0        0.0        0.0        0.0        0.0        0.0        0.0        0.0        0.0        0.0      9.4       0.7       1.9       3.3       4.8    391.85
     9     3  2011    68     2     155.7    11.4      0.0    0.0   11.1    0.3      5.4      0.0   -9.90      0.5      0.5    100      0.0      0.0   100      0.5     0.5     100      0.0    0.92     -9     -9      0      0      0    10.0    10.0    100    -9.00      0.0      0.0      0.0   100     0.0     0.000    -9.9    0.000   -9.900      -9        0.00    0.000    0.000     155.7    132.0    0.92   122.3     387.1     106.9      72.5      53.5      22.9      22.3    0.000     0.000     0.000     0.000     0.000    0.92     0.00    0.00      0   -9.90   -9.00       23.4       12.6       12.3       12.4       12.2       12.1       12.0       12.0       11.9       11.9       11.9       11.9        0.0        0.0        0.0        0.0        0.0        0.0        0.0        0.0        0.0        0.0        0.0        0.0     11.4       0.6       0.6       1.9       3.2    391.85
    10     3  2011    69     2     147.5     1.4      0.0    0.0    1.4    0.0      9.0      0.0   -9.90      0.6      0.6    100      0.0      0.0   100      0.6     0.6     100      0.0    0.93     -9     -9      0      0      0    10.0    10.0    100    -9.00      0.0      0.0      0.0   100     0.0     0.000    -9.9    0.000   -9.900      -9        0.00    0.000    0.000     147.5    123.6    0.93   114.6     390.0     107.7      73.3      54.2      23.1      22.4    0.000     0.000     0.000     0.000     0.000    0.93     0.00    0.00      0   -9.90   -9.00       12.7       12.8       12.7       12.7       12.4       12.4       12.2       12.2       12.1       12.0       12.0       12.0        0.0        0.0        0.0        0.0        0.0        0.0        0.0        0.0        0.0        0.0        0.0        0.0      1.4       0.7      -1.4       0.3       2.0    391.85
    11     3  2011    70     2     150.2     9.0      0.0    0.0    8.9    0.1      5.5      0.0   -9.90      0.7      0.7    100      0.0      0.0   100      0.7     0.7     100      0.0    0.93     -9     -9      0      0      0    10.0    10.0    100    -9.00      0.0      0.0      0.0   100     0.0     0.000    -9.9    0.000   -9.900      -9        0.00    0.000    0.000     150.2    126.5    0.93   118.5     392.9     108.5      74.2      54.9      23.3      22.6    0.000     0.000     0.000     0.000     0.000    0.93     0.00    0.00      0   -9.90   -9.00       20.2       11.9       11.8       12.0       12.0       11.9       11.9       11.9       11.9       11.9       11.9       11.9        0.0        0.0        0.0        0.0        0.0        0.0        0.0        0.0        0.0        0.0        0.0        0.0      9.0       0.8      -3.3       0.3       3.9    391.85
    12     3  2011    71     2     145.6     1.6      0.0    0.0    1.6    0.0      5.6      0.0   -9.90      0.6      0.6    100      0.0      0.0   100      0.6     0.6     100      0.0    0.94     -9     -9      0      0      0    10.0    10.0    100    -9.00      0.0      0.0      0.0   100     0.0     0.000    -9.9    0.000   -9.900      -9        0.00    0.000    0.000     145.6    121.8    0.94   114.6     395.9     109.3      74.4      55.0      23.4      22.8    0.000     0.000     0.000     0.000     0.000    0.94     0.00    0.00      0   -9.90   -9.00       12.9       12.6       12.5       12.3       12.2       12.1       12.0       12.0       11.9       11.9       11.9       11.9        0.0        0.0        0.0        0.0        0.0        0.0        0.0        0.0        0.0        0.0        0.0        0.0      1.6       0.7      -0.0       2.2       4.5    391.85
    13     3  2011    72     2     156.1    15.8      0.0    0.0   14.9    0.9      3.9      0.0   -9.90      0.5      0.5    100      0.0      0.0   100      0.5     0.5     100      0.0    0.95     -9     -9      0      0      0    10.0    10.0    100    -9.00      0.0      0.0      0.0   100     0.0     0.000    -9.9    0.000   -9.900      -9        0.00    0.000    0.000     156.1    132.4    0.95   126.1     398.8     110.1      74.7      55.2      23.6      22.9    0.000     0.000     0.000     0.000     0.000    0.95     0.00    0.00      0   -9.90   -9.00       26.5       11.9       11.8       11.9       11.9       11.9       11.9       11.9       11.8       11.8       11.8       11.8        0.0        0.0        0.0        0.0        0.0        0.0        0.0        0.0        0.0        0.0        0.0        0.0     15.8       0.6      -0.1       2.4       4.9    391.85
    14     3  2011    73     2     147.3     0.6      0.0    0.0    0.6    0.0      8.8      0.0   -9.90      0.5      0.5    100      0.0      0.0   100      0.5     0.5     100      0.0    0.95     -9     -9      0      0      0    10.0    10.0    100    -9.00      0.0      0.0      0.0   100     0.0     0.000    -9.9    0.000   -9.900      -9        0.00    0.000    0.000     147.3    123.4    0.95   117.7     401.6     110.9      75.2      55.6      23.8      23.1    0.000     0.000     0.000     0.000     0.000    0.95     0.00    0.00      0   -9.90   -9.00       12.3       12.9       12.5       12.8       12.5       12.5       12.3       12.2       12.1       12.0       12.0       12.0        0.0        0.0        0.0        0.0        0.0        0.0        0.0        0.0        0.0        0.0        0.0        0.0      0.6       0.6      -0.0       3.1       6.2    391.85
    15     3  2011    74     2     141.1     0.0      0.0    0.0    0.0    0.0      5.4      0.0   -9.90      0.9      0.9     95      0.0      0.0   100      0.9     0.9      95      0.0    0.96     -9     -9      0      0      0    10.0    10.0    100    -9.00      0.0      0.0      0.0   100     0.0     0.000    -9.9    0.000   -9.900      -9        0.00    0.000    0.000     141.1    117.4    0.96   112.6     404.5     111.7      77.0      57.0      24.0      23.3    0.000     0.000     0.000     0.000     0.000    0.96     0.00    0.00      0   -9.90   -9.00       10.9       11.9       11.8       12.0       11.9       11.9       11.9       11.9       11.9       11.9       11.9       11.8        0.0        0.0        0.0        0.0        0.0        0.0        0.0        0.0        0.0        0.0        0.0        0.0      0.0       1.0       0.2       3.6       7.0    391.85
    16     3  2011    75     2     138.4     0.0      0.0    0.0    0.0    0.0      1.6      0.0   -9.90      1.4      1.1     73      0.0      0.0   100      1.4     1.1      73      0.0    0.97     -9     -9      0      0      0    10.0    10.0    100    -9.00      0.0      0.0      0.0   100     0.0     0.000    -9.9    0.000   -9.900      -9        0.00    0.000    0.000     138.4    115.0    0.97   111.0     407.4     112.5      79.5      59.0      24.4      23.4    0.000     0.000     0.000     0.000     0.000    0.97     0.00    0.00      0   -9.90   -9.00        9.8       11.7       11.7       11.8       11.8       11.8       11.8       11.7       11.7       11.7       11.7       11.7        0.0        0.0        0.0        0.0        0.0        0.0        0.0        0.0        0.0        0.0        0.0        0.0      0.0       1.6      -2.2       2.4       7.0    391.85
    17     3  2011    76     2     140.2     3.1      0.0    0.0    3.1    0.0      0.4      0.0   -9.90      1.0      1.0    100      0.0      0.0   100      1.0     1.0     100      0.0    0.97     -9     -9      0      0      0    10.0    10.0    100    -9.00      0.0      0.0      0.0   100     0.0     0.000    -9.9    0.000   -9.900      -9        0.00    0.000    0.000     140.2    116.8    0.97   113.6     410.2     113.3      78.4      58.1      24.4      23.6    0.000     0.000     0.000     0.000     0.000    0.97     0.00    0.00      0   -9.90   -9.00       12.0       11.7       11.7       11.7       11.7       11.7       11.7       11.7       11.7       11.7       11.7       11.7        0.0        0.0        0.0        0.0        0.0        0.0        0.0        0.0        0.0        0.0        0.0        0.0      3.1       1.1      -2.4       2.0       6.5    391.85
    18     3  2011    77     2     144.7     5.4      0.0    0.0    5.4    0.0      0.2      0.0   -9.90      0.6      0.6    100      0.0      0.0   100      0.6     0.6     100      0.0    0.98     -9     -9      0      0      0    10.0    10.0    100    -9.00      0.0      0.0      0.0   100     0.0     0.000    -9.9    0.000   -9.900      -9        0.00    0.000    0.000     144.7    121.3    0.98   119.0     413.0     114.1      77.7      57.4      24.5      23.8    0.000     0.000     0.000     0.000     0.000    0.98     0.00    0.00      0   -9.90   -9.00       16.6       11.7       11.7       11.7       11.7       11.7       11.7       11.7       11.7       11.7       11.7       11.7        0.0        0.0        0.0        0.0        0.0        0.0        0.0        0.0        0.0        0.0        0.0        0.0      5.4       0.7      -0.0       2.4       4.7    391.85
    19     3  2011    78     2     143.5     1.8      0.0    0.0    1.8    0.0      2.2      0.0   -9.90      0.8      0.8    100      0.0      0.0   100      0.8     0.8     100      0.0    0.99     -9     -9      0      0      0    10.0    10.0    100    -9.00      0.0      0.0      0.0   100     0.0     0.000    -9.9    0.000   -9.900      -9        0.00    0.000    0.000     143.5    119.9    0.99   118.4     415.9     114.8      78.9      58.4      24.7      23.9    0.000     0.000     0.000     0.000     0.000    0.99     0.00    0.00      0   -9.90   -9.00       13.0       12.2       12.1       12.0       12.0       11.9       11.9       11.8       11.8       11.8       11.8       11.8        0.0        0.0        0.0        0.0        0.0        0.0        0.0        0.0        0.0        0.0        0.0        0.0      1.8       0.9       0.7       3.6       6.6    391.85
    20     3  2011    79     2     141.6     1.1      0.0    0.0    1.1    0.0      2.3      0.0   -9.90      0.7      0.7    100      0.0      0.0   100      0.7     0.7     100      0.0    0.99     -9     -9      0      0      0    10.0    10.0    100    -9.00      0.0      0.0      0.0   100     0.0     0.000    -9.9    0.000   -9.900      -9        0.00    0.000    0.000     141.6    118.1    0.99   117.3     418.7     115.6      79.1      58.5      24.8      24.1    0.000     0.000     0.000     0.000     0.000    0.99     0.00    0.00      0   -9.90   -9.00       12.3       11.9       11.8       11.9       11.8       11.8       11.8       11.8       11.8       11.8       11.8       11.8        0.0        0.0        0.0        0.0        0.0        0.0        0.0        0.0        0.0        0.0        0.0        0.0      1.1       0.8       0.2       3.2       6.2    391.85
    21     3  2011    80     2     156.9    18.5      0.0    0.0   17.1    1.4      1.2      0.0   -9.90      0.6      0.6    100      0.0      0.0   100      0.6     0.6     100      0.0    1.00     -9     -9      0      0      0    10.0    10.0    100    -9.00      0.0      0.0      0.0   100     0.0     0.000    -9.9    0.000   -9.900      -9        0.00    0.000    0.000     156.9    133.4    1.00   133.4     421.5     116.4      79.3      58.6      25.0      24.3    0.000     0.000     0.000     0.000     0.000    1.00     0.00    0.00      0   -9.90   -9.00       28.5       11.8       11.7       11.8       11.8       11.8       11.7       11.7       11.7       11.7       11.7       11.7        0.0        0.0        0.0        0.0        0.0        0.0        0.0        0.0        0.0        0.0        0.0        0.0     18.5       0.7       3.8       5.5       7.3    391.85
    22     3  2011    81     2     158.1    11.3      0.0    0.0   11.0    0.3      8.9      0.0   -9.90      0.9      0.9    100      0.0      0.0   100      0.9     0.9     100      0.0    1.00     -9     -9      0      0      0    10.0    10.0    100    -9.00      0.0      0.0      0.0   100     0.0     0.000    -9.9    0.000   -9.900      -9        0.00    0.000    0.000     158.1    134.1    1.00   134.1     421.5     116.4      80.3      59.4      25.1      24.3    0.000     0.000     0.000     0.000     0.000    1.00     0.00    0.00      0   -9.90   -9.00       23.1       12.9       12.6       13.0       12.6       12.4       12.2       12.1       12.1       12.0       12.0       12.0        0.0        0.0        0.0        0.0        0.0        0.0        0.0        0.0        0.0        0.0        0.0        0.0     11.3       1.0       3.2       5.2       7.3    391.85
    23     3  2011    82     2     157.4    11.0      0.0    0.0   10.7    0.3     10.6      0.0   -9.90      0.7      0.7    100      0.0      0.0   100      0.7     0.7     100      0.0    1.00     -9     -9      0      0      0    10.0    10.0    100    -9.00      0.0      0.0      0.0   100     0.0     0.000    -9.9    0.000   -9.900      -9        0.00    0.000    0.000     157.4    133.4    1.00   133.4     421.5     116.4      79.6      58.9      25.0      24.3    0.000     0.000     0.000     0.000     0.000    1.00     0.00    0.00      0   -9.90   -9.00       23.0       12.8       12.4       12.7       12.5       12.3       12.2       12.2       12.1       12.1       12.0       12.0        0.0        0.0        0.0        0.0        0.0        0.0        0.0        0.0        0.0        0.0        0.0        0.0     11.0       0.8       2.8       5.3       7.8    391.85
    24     3  2011    83     2     148.0     1.8      0.0    0.0    1.8    0.0     10.5      0.0   -9.90      0.7      0.7    100      0.0      0.0   100      0.7     0.7     100      0.0    1.00     -9     -9      0      0      0    10.0    10.0    100    -9.00      0.0      0.0      0.0   100     0.0     0.000    -9.9    0.000   -9.900      -9        0.00    0.000    0.000     148.0    124.0    1.00   124.0     421.5     116.4      79.6      58.9      25.0      24.3    0.000     0.000     0.000     0.000     0.000    1.00     0.00    0.00      0   -9.90   -9.00       13.1       12.8       12.6       12.7       12.4       12.4       12.3       12.2       12.1       12.1       12.0       12.0        0.0        0.0        0.0        0.0        0.0        0.0        0.0        0.0        0.0        0.0        0.0        0.0      1.8       0.8       1.2       3.9       6.5    391.85
    25     3  2011    84     2     141.3     0.1      0.0    0.0    0.1    0.0      5.9      0.0   -9.90      1.2      1.0     86      0.0      0.0   100      1.2     1.0      86      0.0    1.00     -9     -9      0      0      0    10.0    10.0    100    -9.00      0.0      0.0      0.0   100     0.0     0.000    -9.9    0.000   -9.900      -9        0.00    0.000    0.000     141.3    117.5    1.00   117.5     421.5     116.4      81.2      60.2      25.1      24.3    0.000     0.000     0.000     0.000     0.000    1.00     0.00    0.00      0   -9.90   -9.00       10.9       11.9       11.9       12.0       12.0       11.9       11.9       11.9       11.9       11.9       11.9       11.9        0.0        0.0        0.0        0.0        0.0        0.0        0.0        0.0        0.0        0.0        0.0        0.0      0.1       1.3      -2.8      -0.0       2.7    391.85
    26     3  2011    85     2     138.9     0.3      0.0    0.0    0.3    0.0      1.7      0.0   -9.90      1.0      0.9     91      0.0      0.0   100      1.0     0.9      91      0.0    1.00     -9     -9      0      0      0    10.0    10.0    100    -9.00      0.0      0.0      0.0   100     0.0     0.000    -9.9    0.000   -9.900      -9        0.00    0.000    0.000     138.9    115.4    1.00   115.4     421.5     116.4      80.6      59.7      25.1      24.3    0.000     0.000     0.000     0.000     0.000    1.00     0.00    0.00      0   -9.90   -9.00       10.3       11.7       11.7       11.8       11.8       11.8       11.8       11.8       11.7       11.7       11.7       11.7        0.0        0.0        0.0        0.0        0.0        0.0        0.0        0.0        0.0        0.0        0.0        0.0      0.3       1.1      -5.8      -1.3       3.1    391.85
    27     3  2011    86     2     142.7     4.9      0.0    0.0    4.9    0.0      0.4      0.0   -9.90      0.7      0.7    100      0.0      0.0   100      0.7     0.7     100      0.0    1.00     -9     -9      0      0      0    10.0    10.0    100    -9.00      0.0      0.0      0.0   100     0.0     0.000    -9.9    0.000   -9.900      -9        0.00    0.000    0.000     142.7    119.2    1.00   119.2     421.5     116.4      79.6      58.9      25.0      24.3    0.000     0.000     0.000     0.000     0.000    1.00     0.00    0.00      0   -9.90   -9.00       14.5       11.7       11.7       11.7       11.7       11.7       11.7       11.7       11.7       11.7       11.7       11.7        0.0        0.0        0.0        0.0        0.0        0.0        0.0        0.0        0.0        0.0        0.0        0.0      4.9       0.8      -1.8       2.0       5.8    391.85
    28     3  2011    87     2     144.7     4.2      0.0    0.0    4.2    0.0      1.3      0.0   -9.90      0.9      0.9    100      0.0      0.0   100      0.9     0.9     100      0.0    1.00     -9     -9      0      0      0    10.0    10.0    100    -9.00      0.0      0.0      0.0   100     0.0     0.000    -9.9    0.000   -9.900      -9        0.00    0.000    0.000     144.7    121.2    1.00   121.2     421.5     116.4      80.3      59.4      25.1      24.3    0.000     0.000     0.000     0.000     0.000    1.00     0.00    0.00      0   -9.90   -9.00       15.4       12.0       11.9       11.9       11.8       11.8       11.8       11.8       11.8       11.7       11.7       11.7        0.0        0.0        0.0        0.0        0.0        0.0        0.0        0.0        0.0        0.0        0.0        0.0      4.2       1.0      -0.1       1.9       4.0    391.85
[...]
    10    12  2016    -9     0     163.3    18.6      0.0    0.0   17.2    1.4      8.9      0.0   -9.90      0.0      0.0    100      0.0      0.0   100      0.0     0.0     100      0.0    1.00     -9     -9     -9      0     -9     0.0     0.0      0    -9.00      0.0      0.0      0.0   100    13.3     8.750    85.0    7.437   -9.900      69        2.48    0.000    0.000     163.3    139.3    1.00   139.3     421.5     116.4      82.9      56.7      25.3      24.3    0.000     0.000     0.000     0.000     0.000    1.00     0.00    0.00      0   -9.90   -9.00       30.1       12.7       12.3       12.5       12.3       12.2       12.1       12.1       12.0       12.0       12.0       11.9        0.0        0.0        0.0        0.0        0.0        0.0        0.0        0.0        0.0        0.0        0.0        0.0     18.6       0.0       5.9       6.7       7.4    404.41
    11    12  2016    -9     0     152.0     2.7      0.0    0.0    2.7    0.0     13.9      0.0   -9.90      0.0      0.0    100      0.0      0.0   100      0.0     0.0     100      0.0    1.00     -9     -9     -9      0     -9     0.0     0.0      0    -9.00      0.0      0.0      0.0   100    13.3     8.750    85.0    7.437   -9.900      69        2.48    0.000    0.000     152.0    127.8    1.00   127.8     421.5     116.4      82.9      56.7      25.3      24.3    0.000     0.000     0.000     0.000     0.000    1.00     0.00    0.00      0   -9.90   -9.00       14.9       12.8       12.7       13.2       12.8       12.6       12.6       12.4       12.3       12.2       12.2       12.1        0.0        0.0        0.0        0.0        0.0        0.0        0.0        0.0        0.0        0.0        0.0        0.0      2.7       0.0       1.7       3.9       6.0    404.41
    12    12  2016    -9     0     145.2     1.9      0.0    0.0    1.9    0.0      8.4      0.0   -9.90      0.3      0.3    100      0.0      0.0   100      0.3     0.3     100      0.0    1.00     -9     -9     -9      0     -9     0.0     0.0      0    -9.00      0.0      0.0      0.0   100    13.3     8.750    85.0    7.437   -9.900      69        2.48    0.000    0.000     145.2    121.3    1.00   121.3     421.5     116.4      82.9      58.1      25.3      24.3    0.000     0.000     0.000     0.000     0.000    1.00     0.00    0.00      0   -9.90   -9.00       13.6       12.1       12.0       12.1       12.1       12.1       12.0       12.0       12.0       12.0       11.9       11.9        0.0        0.0        0.0        0.0        0.0        0.0        0.0        0.0        0.0        0.0        0.0        0.0      1.9       0.5       1.4       3.2       4.9    404.41
    13    12  2016    -9     0     143.3     1.7      0.0    0.0    1.7    0.0      3.5      0.0   -9.90      0.0      0.0    100      0.0      0.0   100      0.0     0.0     100      0.0    1.00     -9     -9     -9      0     -9     0.0     0.0      0    -9.00      0.0      0.0      0.0   100    13.3     8.750    85.0    7.437   -9.900      69        2.48    0.000    0.000     143.3    119.7    1.00   119.7     421.5     116.4      82.9      56.7      25.3      24.3    0.000     0.000     0.000     0.000     0.000    1.00     0.00    0.00      0   -9.90   -9.00       13.7       12.0       11.8       11.9       11.9       11.8       11.8       11.8       11.8       11.8       11.8       11.8        0.0        0.0        0.0        0.0        0.0        0.0        0.0        0.0        0.0        0.0        0.0        0.0      1.7       0.0       0.2       3.1       6.0    404.41
    14    12  2016    -9     0     141.2     0.3      0.0    0.0    0.3    0.0      2.1      0.0   -9.90      0.3      0.3    100      0.0      0.0   100      0.3     0.3     100      0.0    1.00     -9     -9     -9      0     -9     0.0     0.0      0    -9.00      0.0      0.0      0.0   100    13.3     8.750    85.0    7.437   -9.900      69        2.48    0.000    0.000     141.2    117.7    1.00   117.7     421.5     116.4      82.9      58.1      25.3      24.3    0.000     0.000     0.000     0.000     0.000    1.00     0.00    0.00      0   -9.90   -9.00       11.7       12.0       12.0       11.9       11.8       11.8       11.8       11.8       11.8       11.8       11.8       11.8        0.0        0.0        0.0        0.0        0.0        0.0        0.0        0.0        0.0        0.0        0.0        0.0      0.3       0.5      -0.3       1.6       3.5    404.41
    15    12  2016    -9     0     141.8     2.1      0.0    0.0    2.1    0.0      1.0      0.0   -9.90      0.5      0.5    100      0.0      0.0   100      0.5     0.5     100      0.0    1.00     -9     -9     -9      0     -9     0.0     0.0      0    -9.00      0.0      0.0      0.0   100    13.3     8.750    85.0    7.437   -9.900      69        2.48    0.000    0.000     141.8    118.3    1.00   118.3     421.5     116.4      82.9      58.9      25.3      24.3    0.000     0.000     0.000     0.000     0.000    1.00     0.00    0.00      0   -9.90   -9.00       13.3       11.7       11.7       11.7       11.7       11.7       11.7       11.7       11.7       11.7       11.7       11.7        0.0        0.0        0.0        0.0        0.0        0.0        0.0        0.0        0.0        0.0        0.0        0.0      2.1       0.8       3.5       5.2       6.8    404.41
    16    12  2016    -9     0     140.7     0.2      0.0    0.0    0.2    0.0      1.0      0.0   -9.90      0.3      0.3    100      0.0      0.0   100      0.3     0.3     100      0.0    1.00     -9     -9     -9      0     -9     0.0     0.0      0    -9.00      0.0      0.0      0.0   100    13.3     8.750    85.0    7.437   -9.900      69        2.48    0.000    0.000     140.7    117.2    1.00   117.2     421.5     116.4      82.9      58.1      25.3      24.3    0.000     0.000     0.000     0.000     0.000    1.00     0.00    0.00      0   -9.90   -9.00       11.6       11.9       11.9       11.8       11.8       11.8       11.8       11.8       11.7       11.7       11.7       11.7        0.0        0.0        0.0        0.0        0.0        0.0        0.0        0.0        0.0        0.0        0.0        0.0      0.2       0.5       4.8       5.7       6.6    404.41
    17    12  2016    -9     0     150.7    11.2      0.0    0.0   10.9    0.3      0.7      0.0   -9.90      0.2      0.2    100      0.0      0.0   100      0.2     0.2     100      0.0    1.00     -9     -9     -9      0     -9     0.0     0.0      0    -9.00      0.0      0.0      0.0   100    13.3     8.750    85.0    7.437   -9.900      69        2.48    0.000    0.000     150.7    127.3    1.00   127.3     421.5     116.4      82.9      57.5      25.3      24.3    0.000     0.000     0.000     0.000     0.000    1.00     0.00    0.00      0   -9.90   -9.00       22.5       11.7       11.7       11.7       11.7       11.7       11.7       11.7       11.7       11.7       11.7       11.7        0.0        0.0        0.0        0.0        0.0        0.0        0.0        0.0        0.0        0.0        0.0        0.0     11.2       0.3       4.0       5.2       6.4    404.41
    18    12  2016    -9     0     146.5     1.4      0.0    0.0    1.4    0.0      5.3      0.0   -9.90      0.3      0.3    100      0.0      0.0   100      0.3     0.3     100      0.0    1.00     -9     -9     -9      0     -9     0.0     0.0      0    -9.00      0.0      0.0      0.0   100    13.3     8.750    85.0    7.437   -9.900      69        2.48    0.000    0.000     146.5    122.8    1.00   122.8     421.5     116.4      82.9      57.8      25.3      24.3    0.000     0.000     0.000     0.000     0.000    1.00     0.00    0.00      0   -9.90   -9.00       13.1       12.7       12.7       12.5       12.3       12.2       12.1       12.0       12.0       11.9       11.9       11.9        0.0        0.0        0.0        0.0        0.0        0.0        0.0        0.0        0.0        0.0        0.0        0.0      1.4       0.4       2.4       3.9       5.4    404.41
    19    12  2016    -9     0     143.9     2.0      0.0    0.0    2.0    0.0      4.5      0.0   -9.90      0.2      0.2    100      0.0      0.0   100      0.2     0.2     100      0.0    1.00     -9     -9     -9      0     -9     0.0     0.0      0    -9.00      0.0      0.0      0.0   100    13.3     8.750    85.0    7.437   -9.900      69        2.48    0.000    0.000     143.9    120.2    1.00   120.2     421.5     116.4      82.9      57.5      25.3      24.3    0.000     0.000     0.000     0.000     0.000    1.00     0.00    0.00      0   -9.90   -9.00       13.7       11.9       11.9       12.0       12.0       11.9       11.9       11.9       11.9       11.8       11.8       11.8        0.0        0.0        0.0        0.0        0.0        0.0        0.0        0.0        0.0        0.0        0.0        0.0      2.0       0.3       5.2       6.1       7.0    404.41
    20    12  2016    -9     0     141.4     0.4      0.0    0.0    0.4    0.0      2.5      0.0   -9.90      0.4      0.4    100      0.0      0.0   100      0.4     0.4     100      0.0    1.00     -9     -9     -9      0     -9     0.0     0.0      0    -9.00      0.0      0.0      0.0   100    13.3     8.750    85.0    7.437   -9.900      69        2.48    0.000    0.000     141.4    117.8    1.00   117.8     421.5     116.4      82.9      58.3      25.3      24.3    0.000     0.000     0.000     0.000     0.000    1.00     0.00    0.00      0   -9.90   -9.00       11.8       12.0       11.9       11.9       11.8       11.8       11.8       11.8       11.8       11.8       11.8       11.8        0.0        0.0        0.0        0.0        0.0        0.0        0.0        0.0        0.0        0.0        0.0        0.0      0.4       0.6       5.8       6.5       7.2    404.41
    21    12  2016    -9     0     151.5    12.2      0.0    0.0   11.8    0.4      1.1      0.0   -9.90      0.6      0.6    100      0.0      0.0   100      0.6     0.6     100      0.0    1.00     -9     -9     -9      0     -9     0.0     0.0      0    -9.00      0.0      0.0      0.0   100    13.3     8.750    85.0    7.437   -9.900      69        2.48    0.000    0.000     151.5    128.0    1.00   128.0     421.5     116.4      82.9      59.1      25.3      24.3    0.000     0.000     0.000     0.000     0.000    1.00     0.00    0.00      0   -9.90   -9.00       23.1       11.7       11.7       11.8       11.7       11.7       11.7       11.7       11.7       11.7       11.7       11.7        0.0        0.0        0.0        0.0        0.0        0.0        0.0        0.0        0.0        0.0        0.0        0.0     12.2       0.9       4.7       5.6       6.5    404.41
    22    12  2016    -9     0     156.9    12.0      0.0    0.0   11.6    0.4      5.7      0.0   -9.90      0.6      0.6    100      0.0      0.0   100      0.6     0.6     100      0.0    1.00     -9     -9     -9      0     -9     0.0     0.0      0    -9.00      0.0      0.0      0.0   100    13.3     8.750    85.0    7.437   -9.900      69        2.48    0.000    0.000     156.9    133.1    1.00   133.1     421.5     116.4      82.9      59.1      25.3      24.3    0.000     0.000     0.000     0.000     0.000    1.00     0.00    0.00      0   -9.90   -9.00       24.0       12.7       12.4       12.5       12.3       12.1       12.1       12.0       11.9       11.9       11.9       11.9        0.0        0.0        0.0        0.0        0.0        0.0        0.0        0.0        0.0        0.0        0.0        0.0     12.0       0.9       4.1       5.0       5.9    404.41
    23    12  2016    -9     0     165.3    20.2      0.0    0.0   18.4    1.8      9.5      0.0   -9.90      0.5      0.5    100      0.0      0.0   100      0.5     0.5     100      0.0    1.00     -9     -9     -9      0     -9     0.0     0.0      0    -9.00      0.0      0.0      0.0   100    13.3     8.750    85.0    7.437   -9.900      69        2.48    0.000    0.000     165.3    141.3    1.00   141.3     421.5     116.4      82.9      58.9      25.3      24.3    0.000     0.000     0.000     0.000     0.000    1.00     0.00    0.00      0   -9.90   -9.00       31.0       12.8       12.4       12.7       12.5       12.3       12.2       12.1       12.1       12.0       12.0       12.0        0.0        0.0        0.0        0.0        0.0        0.0        0.0        0.0        0.0        0.0        0.0        0.0     20.2       0.8       4.6       5.8       7.1    404.41
    24    12  2016    -9     0     158.6     9.2      0.0    0.0    9.1    0.1     15.2      0.0   -9.90      0.6      0.6    100      0.0      0.0   100      0.6     0.6     100      0.0    1.00     -9     -9     -9      0     -9     0.0     0.0      0    -9.00      0.0      0.0      0.0   100    13.3     8.750    85.0    7.437   -9.900      69        2.48    0.000    0.000     158.6    134.3    1.00   134.3     421.5     116.4      82.9      59.1      25.3      24.3    0.000     0.000     0.000     0.000     0.000    1.00     0.00    0.00      0   -9.90   -9.00       21.4       12.8       12.7       13.3       12.9       12.7       12.5       12.4       12.3       12.2       12.2       12.1        0.0        0.0        0.0        0.0        0.0        0.0        0.0        0.0        0.0        0.0        0.0        0.0      9.2       0.9       2.9       4.4       5.9    404.41
    25    12  2016    -9     0     158.9    13.0      0.0    0.0   12.5    0.5     11.6      0.0   -9.90      0.6      0.6    100      0.0      0.0   100      0.6     0.6     100      0.0    1.00     -9     -9     -9      0     -9     0.0     0.0      0    -9.00      0.0      0.0      0.0   100    13.3     8.750    85.0    7.437   -9.900      69        2.48    0.000    0.000     158.9    134.8    1.00   134.8     421.5     116.4      82.9      59.4      25.3      24.3    0.000     0.000     0.000     0.000     0.000    1.00     0.00    0.00      0   -9.90   -9.00       24.8       12.7       12.3       12.6       12.4       12.3       12.2       12.2       12.1       12.1       12.0       12.0        0.0        0.0        0.0        0.0        0.0        0.0        0.0        0.0        0.0        0.0        0.0        0.0     13.0       1.0       4.3       6.8       9.2    404.41
    26    12  2016    -9     0     158.1    11.5      0.0    0.0   11.2    0.3     11.1      0.0   -9.90      0.9      0.9    100      0.0      0.0   100      0.9     0.9     100      0.0    1.00     -9     -9     -9      0     -9     0.0     0.0      0    -9.00      0.0      0.0      0.0   100    13.3     8.750    85.0    7.437   -9.900      69        2.48    0.000    0.000     158.1    134.0    1.00   134.0     421.5     116.4      82.9      60.5      25.3      24.3    0.000     0.000     0.000     0.000     0.000    1.00     0.00    0.00      0   -9.90   -9.00       23.3       12.8       12.5       12.8       12.5       12.4       12.3       12.2       12.1       12.1       12.0       12.0        0.0        0.0        0.0        0.0        0.0        0.0        0.0        0.0        0.0        0.0        0.0        0.0     11.5       1.4       3.3       5.0       6.7    404.41
    27    12  2016    -9     0     148.8     2.1      0.0    0.0    2.1    0.0     10.9      0.0   -9.90      0.5      0.5    100      0.0      0.0   100      0.5     0.5     100      0.0    1.00     -9     -9     -9      0     -9     0.0     0.0      0    -9.00      0.0      0.0      0.0   100    13.3     8.750    85.0    7.437   -9.900      69        2.48    0.000    0.000     148.8    124.7    1.00   124.7     421.5     116.4      82.9      58.9      25.3      24.3    0.000     0.000     0.000     0.000     0.000    1.00     0.00    0.00      0   -9.90   -9.00       13.7       12.8       12.6       12.7       12.5       12.5       12.3       12.2       12.1       12.1       12.1       12.0        0.0        0.0        0.0        0.0        0.0        0.0        0.0        0.0        0.0        0.0        0.0        0.0      2.1       0.8       3.6       4.7       5.8    404.41
    28    12  2016    -9     0     144.0     1.5      0.0    0.0    1.5    0.0      6.2      0.0   -9.90      0.1      0.1    100      0.0      0.0   100      0.1     0.1     100      0.0    1.00     -9     -9     -9      0     -9     0.0     0.0      0    -9.00      0.0      0.0      0.0   100    13.3     8.750    85.0    7.437   -9.900      69        2.48    0.000    0.000     144.0    120.2    1.00   120.2     421.5     116.4      82.9      57.2      25.3      24.3    0.000     0.000     0.000     0.000     0.000    1.00     0.00    0.00      0   -9.90   -9.00       13.3       12.0       11.9       12.0       12.0       12.0       11.9       11.9       11.9       11.9       11.9       11.9        0.0        0.0        0.0        0.0        0.0        0.0        0.0        0.0        0.0        0.0        0.0        0.0      1.5       0.2       3.9       5.0       6.1    404.41
    29    12  2016    -9     0     142.4     1.4      0.0    0.0    1.4    0.0      2.7      0.0   -9.90      0.3      0.3    100      0.0      0.0   100      0.3     0.3     100      0.0    1.00     -9     -9     -9      0     -9     0.0     0.0      0    -9.00      0.0      0.0      0.0   100    13.3     8.750    85.0    7.437   -9.900      69        2.48    0.000    0.000     142.4    118.8    1.00   118.8     421.5     116.4      82.9      58.1      25.3      24.3    0.000     0.000     0.000     0.000     0.000    1.00     0.00    0.00      0   -9.90   -9.00       13.0       11.9       11.8       11.9       11.8       11.8       11.8       11.8       11.8       11.8       11.8       11.8        0.0        0.0        0.0        0.0        0.0        0.0        0.0        0.0        0.0        0.0        0.0        0.0      1.4       0.5       6.1       6.6       7.1    404.41
    30    12  2016    -9     0     163.1    25.9      0.0    0.0   22.7    3.2      1.5      0.0   -9.90      0.4      0.4    100      0.0      0.0   100      0.4     0.4     100      0.2    1.00     -9     -9     -9      0     -9     0.0     0.0      0    -9.00      0.0      0.0      0.0   100    13.3     8.750    85.0    7.437   -9.900      69        2.48    0.000    0.000     163.1    139.7    1.00   139.7     421.5     116.4      82.9      58.3      25.3      24.3    0.000     0.000     0.000     0.000     0.000    1.00     0.00    0.00      0   -9.90   -9.00       34.6       11.9       11.8       11.8       11.8       11.8       11.8       11.8       11.8       11.7       11.7       11.7        0.0        0.0        0.0        0.0        0.0        0.0        0.0        0.0        0.0        0.0        0.0        0.0     25.9       0.6       7.2       8.2       9.2    404.41
    31    12  2016    -9     0     166.0    17.7      0.0    0.0   16.5    1.2     13.2      0.0   -9.90      0.4      0.4    100      0.0      0.0   100      0.4     0.4     100      0.0    1.00     -9     -9     -9      0     -9     0.0     0.0      0    -9.00      0.0      0.0      0.0   100    13.3     8.750    85.0    7.437   -9.900      69        2.48    0.000    0.000     166.0    141.8    1.00   141.8     421.5     116.4      82.9      58.3      25.3      24.3    0.000     0.000     0.000     0.000     0.000    1.00     0.00    0.00      0   -9.90   -9.00       29.0       12.7       12.8       13.4       13.0       12.7       12.5       12.4       12.3       12.2       12.1       12.1        0.0        0.0        0.0        0.0        0.0        0.0        0.0        0.0        0.0        0.0        0.0        0.0     17.7       0.6       4.1       6.7       9.3    404.41
