AquaCrop 7.1 (August 2023) - Output created on (date) : 19-08-2023   at (time) : 13:48:27

   Run:   1
   Day Month  Year   DAP Stage   WC(1.20)   Rain     Irri   Surf   Infilt   RO    Drain       CR    Zgwt       Ex       E     E/Ex     Trx       Tr  Tr/Trx    ETx      ET  ET/ETx      GD       Z     StExp  StSto  StSen StSalt StWeed   CC      CCw     StTr  Kc(Tr)     Trx       Tr      TrW  Tr/Trx   WP    Biomass     HI    Y(dry)  Y(fresh)  Brelative    WPet      Bin     Bout  WC(1.20) Wr(1.00)     Z       Wr    Wr(SAT)    Wr(FC)   Wr(exp)   Wr(sto)   Wr(sen)   Wr(PWP)    SaltIn    SaltOut   SaltUp   Salt(1.20)  SaltZ     Z       ECe    ECsw   StSalt  Zgwt    ECgw       WC01       WC 2       WC 3       WC 4       WC 5       WC 6       WC 7       WC 8       WC 9       WC10       WC11       WC12      ECe01      ECe 2      ECe 3      ECe 4      ECe 5      ECe 6      ECe 7      ECe 8      ECe 9      ECe10      ECe11      ECe12     Rain       ETo      Tmin      Tavg      Tmax      CO2
                                      mm      mm       mm     mm     mm     mm       mm       mm      m        mm       mm     %        mm       mm    %        mm      mm       %  degC-day     m       %      %      %      %      %      %       %       %       -        mm       mm       mm    %     g/m2    ton/ha      %    ton/ha   ton/ha       %       kg/m3   ton/ha   ton/ha      mm       mm       m       mm        mm        mm        mm        mm        mm         mm    ton/ha    ton/ha    ton/ha    ton/ha    ton/ha     m      dS/m    dS/m      %     m      dS/m       0.05       0.15       0.25       0.35       0.45       0.55       0.65       0.75       0.85       0.95       1.05       1.15       0.05       0.15       0.25       0.35       0.45       0.55       0.65       0.75       0.85       0.95       1.05       1.15       mm        mm     degC      degC      degC       ppm
     1     1  2011     1     2     183.9     0.0      0.0    0.0    0.0    0.0      0.0      0.0   -9.90      0.1      0.1    100      0.0      0.0   100      0.1     0.1     100      0.0    0.30     -9     -9      0      0      0    10.0    10.0    100    -9.00      0.0      0.0      0.0   100     0.0     0.000    -9.9    0.000   -9.900      -9        0.00    0.000    0.000     183.9    152.3    0.30    41.7     114.1      41.8      28.7      21.8      11.0      10.9    0.000     0.000     0.000     0.000     0.000    0.30     0.00    0.00      0   -9.90   -9.00       15.7       15.8       15.8       15.8       15.8       15.8       15.8       15.8       15.8       15.8       15.8       15.8        0.0        0.0        0.0        0.0        0.0        0.0        0.0        0.0        0.0        0.0        0.0        0.0      0.0       0.1      -7.3      -4.9      -2.5    391.85
     2     1  2011     2     2     183.9     0.0      0.0    0.0    0.0    0.0      0.0      0.0   -9.90      0.0      0.0    100      0.0      0.0   100      0.0     0.0     100      0.0    0.30     -9     -9      0      0      0    10.0    10.0    100    -9.00      0.0      0.0      0.0   100     0.0     0.000    -9.9    0.000   -9.900      -9        0.00    0.000    0.000     183.9    152.3    0.30    41.7     114.1      41.8      28.6      21.7      11.0      10.9    0.000     0.000     0.000     0.000     0.000    0.30     0.00    0.00      0   -9.90   -9.00       15.7       15.8       15.8       15.8       15.8       15.8       15.8       15.8       15.8       15.8       15.8       15.8        0.0        0.0        0.0        0.0        0.0        0.0        0.0        0.0        0.0        0.0        0.0        0.0      0.0       0.0     -11.8      -8.9      -6.1    391.85
     3     1  2011     3     2     188.0     4.1      0.0    0.0    4.1    0.0      0.0      0.0   -9.90      0.0      0.0    100      0.0      0.0   100      0.0     0.0     100      0.0    0.30     -9     -9      0      0      0    10.0    10.0    100    -9.00      0.0      0.0      0.0   100     0.0     0.000    -9.9    0.000   -9.900      -9        0.00    0.000    0.000     188.0    156.4    0.30    45.8     114.1      41.8      28.6      21.7      11.0      10.9    0.000     0.000     0.000     0.000     0.000    0.30     0.00    0.00      0   -9.90   -9.00       20.3       15.8       15.8       15.8       15.8       15.8       15.8       15.8       15.8       15.8       15.8       15.8        0.0        0.0        0.0        0.0        0.0        0.0        0.0        0.0        0.0        0.0        0.0        0.0      4.1       0.0     -11.4      -8.4      -5.4    391.85
     4     1  2011     4     2     190.1     3.4      0.0    0.0    3.4    0.0      1.3      0.0   -9.90      0.0      0.0    100      0.0      0.0   100      0.0     0.0     100      0.0    0.32     -9     -9      0      0      0    10.0    10.0    100    -9.00      0.0      0.0      0.0   100     0.0     0.000    -9.9    0.000   -9.900      -9        0.00    0.000    0.000     190.1    158.4    0.32    49.3     121.5      44.5      30.4      23.2      11.8      11.6    0.000     0.000     0.000     0.000     0.000    0.32     0.00    0.00      0   -9.90   -9.00       20.3       16.3       16.1       16.2       16.1       16.0       15.9       15.9       15.9       15.9       15.9       15.9        0.0        0.0        0.0        0.0        0.0        0.0        0.0        0.0        0.0        0.0        0.0        0.0      3.4       0.0      -6.8      -5.4      -4.0    391.85
     5     1  2011     5     2     199.1    12.1      0.0    0.0   11.7    0.4      2.6      0.0   -9.90      0.1      0.1    100      0.0      0.0   100      0.1     0.1     100      0.0    0.33     -9     -9      0      0      0    10.0    10.0    100    -9.00      0.0      0.0      0.0   100     0.0     0.000    -9.9    0.000   -9.900      -9        0.00    0.000    0.000     199.1    167.3    0.33    60.4     129.0      47.3      32.5      24.7      12.6      12.4    0.000     0.000     0.000     0.000     0.000    0.33     0.00    0.00      0   -9.90   -9.00       29.6       16.4       16.1       16.3       16.2       16.1       16.0       16.0       16.0       15.9       15.9       15.9        0.0        0.0        0.0        0.0        0.0        0.0        0.0        0.0        0.0        0.0        0.0        0.0     12.1       0.1      -5.6      -4.9      -4.3    391.85
     6     1  2011     6     2     204.0    11.9      0.0    0.0   11.5    0.4      6.5      0.0   -9.90      0.2      0.2    100      0.0      0.0   100      0.2     0.2     100      0.0    0.35     -9     -9      0      0      0    10.0    10.0    100    -9.00      0.0      0.0      0.0   100     0.0     0.000    -9.9    0.000   -9.900      -9        0.00    0.000    0.000     204.0    171.8    0.35    64.9     136.0      49.8      34.3      26.2      13.3      13.1    0.000     0.000     0.000     0.000     0.000    0.35     0.00    0.00      0   -9.90   -9.00       30.0       17.1       16.7       17.2       16.8       16.5       16.4       16.3       16.2       16.2       16.1       16.1        0.0        0.0        0.0        0.0        0.0        0.0        0.0        0.0        0.0        0.0        0.0        0.0     11.9       0.2      -7.2      -5.7      -4.2    391.85
     7     1  2011     7     2     198.0     4.0      0.0    0.0    4.0    0.0     10.0      0.0   -9.90      0.0      0.0    100      0.0      0.0   100      0.0     0.0     100      0.0    0.37     -9     -9      0      0      0    10.0    10.0    100    -9.00      0.0      0.0      0.0   100     0.0     0.000    -9.9    0.000   -9.900      -9        0.00    0.000    0.000     198.0    165.5    0.37    59.8     142.6      52.2      35.7      27.3      14.0      13.7    0.000     0.000     0.000     0.000     0.000    0.37     0.00    0.00      0   -9.90   -9.00       21.0       17.1       16.7       17.4       17.0       16.7       16.6       16.6       16.4       16.4       16.3       16.2        0.0        0.0        0.0        0.0        0.0        0.0        0.0        0.0        0.0        0.0        0.0        0.0      4.0       0.0     -10.3      -8.8      -7.2    391.85
     8     1  2011     8     2     202.4    13.1      0.0    0.0   12.6    0.5      8.0      0.0   -9.90      0.2      0.2    100      0.0      0.0   100      0.2     0.2     100      0.0    0.38     -9     -9      0      0      0    10.0    10.0    100    -9.00      0.0      0.0      0.0   100     0.0     0.000    -9.9    0.000   -9.900      -9        0.00    0.000    0.000     202.4    170.1    0.38    69.1     148.9      54.5      37.6      28.7      14.6      14.4    0.000     0.000     0.000     0.000     0.000    0.38     0.00    0.00      0   -9.90   -9.00       30.6       16.5       16.2       16.5       16.4       16.4       16.3       16.3       16.2       16.2       16.1       16.1        0.0        0.0        0.0        0.0        0.0        0.0        0.0        0.0        0.0        0.0        0.0        0.0     13.1       0.2     -10.3      -7.4      -4.4    391.85
     9     1  2011     9     2     219.7    31.5      0.0    0.0   26.5    5.0      9.0      0.0   -9.90      0.2      0.2    100      0.0      0.0   100      0.2     0.2     100      0.0    0.39     -9     -9      0      0      0    10.0    10.0    100    -9.00      0.0      0.0      0.0   100     0.0     0.000    -9.9    0.000   -9.900      -9        0.00    0.000    0.000     219.7    187.2    0.39    87.0     154.9      56.7      39.1      29.9      15.3      15.0    0.000     0.000     0.000     0.000     0.000    0.39     0.00    0.00      0   -9.90   -9.00       42.9       20.5       16.7       17.3       16.9       16.7       16.6       16.4       16.4       16.3       16.2       16.2        0.0        0.0        0.0        0.0        0.0        0.0        0.0        0.0        0.0        0.0        0.0        0.0     31.5       0.2      -5.6      -4.2      -2.9    391.85
    10     1  2011    10     2     224.0    27.2      0.0    0.0   23.6    3.6     19.1      0.0   -9.90      0.2      0.2    100      0.0      0.0   100      0.2     0.2     100      0.0    0.41     -9     -9      0      0      0    10.0    10.0    100    -9.00      0.0      0.0      0.0   100     0.0     0.000    -9.9    0.000   -9.900      -9        0.00    0.000    0.000     224.0    190.8    0.41    88.1     160.7      58.8      40.6      31.0      15.8      15.6    0.000     0.000     0.000     0.000     0.000    0.41     0.00    0.00      0   -9.90   -9.00       42.9       16.6       17.2       19.0       18.2       17.7       17.3       17.1       16.9       16.8       16.7       16.6        0.0        0.0        0.0        0.0        0.0        0.0        0.0        0.0        0.0        0.0        0.0        0.0     27.2       0.2      -5.8      -3.8      -1.9    391.85
    11     1  2011    11     2     221.9    23.3      0.0    0.0   20.8    2.5     22.8      0.0   -9.90      0.1      0.1    100      0.0      0.0   100      0.1     0.1     100      0.0    0.42     -9     -9      0      0      0    10.0    10.0    100    -9.00      0.0      0.0      0.0   100     0.0     0.000    -9.9    0.000   -9.900      -9        0.00    0.000    0.000     221.9    188.4    0.42    87.6     166.4      60.9      41.9      32.0      16.4      16.2    0.000     0.000     0.000     0.000     0.000    0.42     0.00    0.00      0   -9.90   -9.00       40.1       16.6       17.1       18.7       18.1       17.7       17.4       17.2       17.0       16.9       16.8       16.7        0.0        0.0        0.0        0.0        0.0        0.0        0.0        0.0        0.0        0.0        0.0        0.0     23.3       0.1      -5.2      -3.2      -1.2    391.85
    12     1  2011    12     2     200.3     0.0      0.0    0.0    0.0    0.0     21.6      0.0   -9.90      0.0      0.0    100      0.0      0.0   100      0.0     0.0     100      0.0    0.43     -9     -9      0      0      0    10.0    10.0    100    -9.00      0.0      0.0      0.0   100     0.0     0.000    -9.9    0.000   -9.900      -9        0.00    0.000    0.000     200.3    166.9    0.43    69.2     171.8      62.8      43.1      32.9      17.0      16.7    0.000     0.000     0.000     0.000     0.000    0.43     0.00    0.00      0   -9.90   -9.00       16.9       16.9       17.1       18.4       17.9       17.5       17.3       17.1       16.9       16.8       16.7       16.7        0.0        0.0        0.0        0.0        0.0        0.0        0.0        0.0        0.0        0.0        0.0        0.0      0.0       0.0     -11.3      -7.9      -4.4    391.85
    13     1  2011    13     2     198.0     8.9      0.0    0.0    8.8    0.1     11.0      0.0   -9.90      0.1      0.1    100      0.0      0.0   100      0.1     0.1     100      0.0    0.45     -9     -9      0      0      0    10.0    10.0    100    -9.00      0.0      0.0      0.0   100     0.0     0.000    -9.9    0.000   -9.900      -9        0.00    0.000    0.000     198.0    165.6    0.45    75.0     177.1      64.8      44.6      34.1      17.5      17.2    0.000     0.000     0.000     0.000     0.000    0.45     0.00    0.00      0   -9.90   -9.00       25.8       16.0       16.0       16.6       16.4       16.3       16.3       16.3       16.3       16.3       16.2       16.2        0.0        0.0        0.0        0.0        0.0        0.0        0.0        0.0        0.0        0.0        0.0        0.0      8.9       0.1     -11.0      -8.1      -5.1    391.85
    14     1  2011    14     2     197.3     6.5      0.0    0.0    6.5    0.0      7.2      0.0   -9.90      0.0      0.0    100      0.0      0.0   100      0.0     0.0     100      0.0    0.46     -9     -9      0      0      0    10.0    10.0    100    -9.00      0.0      0.0      0.0   100     0.0     0.000    -9.9    0.000   -9.900      -9        0.00    0.000    0.000     197.3    165.1    0.46    76.9     182.3      66.7      45.7      35.0      18.0      17.8    0.000     0.000     0.000     0.000     0.000    0.46     0.00    0.00      0   -9.90   -9.00       24.2       16.9       16.4       16.8       16.5       16.4       16.3       16.2       16.2       16.1       16.1       16.1        0.0        0.0        0.0        0.0        0.0        0.0        0.0        0.0        0.0        0.0        0.0        0.0      6.5       0.0      -5.6      -4.8      -4.1    391.85
    15     1  2011    15     2     207.9    18.8      0.0    0.0   17.3    1.5      6.6      0.0   -9.90      0.2      0.2    100      0.0      0.0   100      0.2     0.2     100      0.0    0.47     -9     -9      0      0      0    10.0    10.0    100    -9.00      0.0      0.0      0.0   100     0.0     0.000    -9.9    0.000   -9.900      -9        0.00    0.000    0.000     207.9    175.7    0.47    89.4     187.3      68.5      47.4      36.2      18.6      18.3    0.000     0.000     0.000     0.000     0.000    0.47     0.00    0.00      0   -9.90   -9.00       36.3       16.8       16.4       16.8       16.5       16.4       16.3       16.2       16.2       16.1       16.1       16.1        0.0        0.0        0.0        0.0        0.0        0.0        0.0        0.0        0.0        0.0        0.0        0.0     18.8       0.2      -6.6      -5.8      -5.1    391.85
    16     1  2011    16     2     229.6    43.0      0.0    0.0   33.4    9.6     11.5      0.0   -9.90      0.1      0.1    100      0.0      0.0   100      0.1     0.1     100      0.0    0.48     -9     -9      0      0      0    10.0    10.0    100    -9.00      0.0      0.0      0.0   100     0.0     0.000    -9.9    0.000   -9.900      -9        0.00    0.000    0.000     229.6    197.0    0.48   110.3     192.3      70.3      48.4      37.1      19.1      18.8    0.000     0.000     0.000     0.000     0.000    0.48     0.00    0.00      0   -9.90   -9.00       43.0       28.9       17.0       18.0       17.4       17.0       16.8       16.6       16.5       16.4       16.3       16.3        0.0        0.0        0.0        0.0        0.0        0.0        0.0        0.0        0.0        0.0        0.0        0.0     43.0       0.1      -4.4      -1.9       0.7    391.85
    17     1  2011    17     2     219.3    15.5      0.0    0.0   14.6    0.9     25.0      0.0   -9.90      0.0      0.0    100      0.0      0.0   100      0.0     0.0     100      0.0    0.49     -9     -9      0      0      0    10.0    10.0    100    -9.00      0.0      0.0      0.0   100     0.0     0.000    -9.9    0.000   -9.900      -9        0.00    0.000    0.000     219.3    185.5    0.49    96.0     197.1      72.0      49.5      37.8      19.6      19.3    0.000     0.000     0.000     0.000     0.000    0.49     0.00    0.00      0   -9.90   -9.00       33.2       16.6       17.1       19.8       18.8       18.2       17.8       17.5       17.3       17.1       16.9       16.8        0.0        0.0        0.0        0.0        0.0        0.0        0.0        0.0        0.0        0.0        0.0        0.0     15.5       0.0      -3.6      -1.8       0.0    391.85
    18     1  2011    18     2     201.4     3.4      0.0    0.0    3.4    0.0     21.2      0.0   -9.90      0.0      0.0    100      0.0      0.0   100      0.0     0.0     100      0.0    0.50     -9     -9      0      0      0    10.0    10.0    100    -9.00      0.0      0.0      0.0   100     0.0     0.000    -9.9    0.000   -9.900      -9        0.00    0.000    0.000     201.4    168.0    0.50    83.4     201.8      73.8      50.7      38.8      20.1      19.8    0.000     0.000     0.000     0.000     0.000    0.50     0.00    0.00      0   -9.90   -9.00       20.3       17.2       16.8       17.7       17.5       17.3       17.1       17.0       16.9       16.8       16.8       16.6        0.0        0.0        0.0        0.0        0.0        0.0        0.0        0.0        0.0        0.0        0.0        0.0      3.4       0.0      -5.9      -4.7      -3.4    391.85
    19     1  2011    19     2     190.4     0.0      0.0    0.0    0.0    0.0     11.1      0.0   -9.90      0.0      0.0    100      0.0      0.0   100      0.0     0.0     100      0.0    0.51     -9     -9      0      0      0    10.0    10.0    100    -9.00      0.0      0.0      0.0   100     0.0     0.000    -9.9    0.000   -9.900      -9        0.00    0.000    0.000     190.4    157.9    0.51    78.3     206.5      75.5      51.8      39.7      20.5      20.2    0.000     0.000     0.000     0.000     0.000    0.51     0.00    0.00      0   -9.90   -9.00       16.4       16.4       16.2       16.5       16.4       16.4       16.4       16.3       16.3       16.3       16.3       16.2        0.0        0.0        0.0        0.0        0.0        0.0        0.0        0.0        0.0        0.0        0.0        0.0      0.0       0.0     -11.3      -8.3      -5.3    391.85
    20     1  2011    20     2     186.0     0.0      0.0    0.0    0.0    0.0      4.4      0.0   -9.90      0.0      0.0    100      0.0      0.0   100      0.0     0.0     100      0.0    0.52     -9     -9      0      0      0    10.0    10.0    100    -9.00      0.0      0.0      0.0   100     0.0     0.000    -9.9    0.000   -9.900      -9        0.00    0.000    0.000     186.0    154.0    0.52    77.8     211.1      77.1      53.0      40.6      21.0      20.7    0.000     0.000     0.000     0.000     0.000    0.52     0.00    0.00      0   -9.90   -9.00       15.9       15.9       15.9       16.0       16.0       16.0       16.0       16.0       16.0       16.0       16.0       16.0        0.0        0.0        0.0        0.0        0.0        0.0        0.0        0.0        0.0        0.0        0.0        0.0      0.0       0.0     -13.0      -8.4      -3.9    391.85
    21     1  2011    21     2     189.3     4.8      0.0    0.0    4.8    0.0      1.4      0.0   -9.90      0.1      0.1    100      0.0      0.0   100      0.1     0.1     100      0.0    0.53     -9     -9      0      0      0    10.0    10.0    100    -9.00      0.0      0.0      0.0   100     0.0     0.000    -9.9    0.000   -9.900      -9        0.00    0.000    0.000     189.3    157.6    0.53    83.7     215.6      78.8      54.3      41.6      21.5      21.1    0.000     0.000     0.000     0.000     0.000    0.53     0.00    0.00      0   -9.90   -9.00       21.2       15.8       15.8       15.9       15.9       15.9       15.9       15.9       15.9       15.9       15.9       15.9        0.0        0.0        0.0        0.0        0.0        0.0        0.0        0.0        0.0        0.0        0.0        0.0      4.8       0.1      -7.8      -5.3      -2.8    391.85
    22     1  2011    22     2     187.3     0.0      0.0    0.0    0.0    0.0      2.0      0.0   -9.90      0.0      0.0    100      0.0      0.0   100      0.0     0.0     100      0.0    0.54     -9     -9      0      0      0    10.0    10.0    100    -9.00      0.0      0.0      0.0   100     0.0     0.000    -9.9    0.000   -9.900      -9        0.00    0.000    0.000     187.3    155.5    0.54    82.8     220.0      80.4      55.2      42.3      21.9      21.6    0.000     0.000     0.000     0.000     0.000    0.54     0.00    0.00      0   -9.90   -9.00       16.5       16.4       16.1       16.3       16.1       16.0       16.0       15.9       15.9       15.9       15.9       15.9        0.0        0.0        0.0        0.0        0.0        0.0        0.0        0.0        0.0        0.0        0.0        0.0      0.0       0.0      -5.6      -3.7      -1.8    391.85
    23     1  2011    23     2     185.4     0.0      0.0    0.0    0.0    0.0      1.9      0.0   -9.90      0.0      0.0    100      0.0      0.0   100      0.0     0.0     100      0.0    0.55     -9     -9      0      0      0    10.0    10.0    100    -9.00      0.0      0.0      0.0   100     0.0     0.000    -9.9    0.000   -9.900      -9        0.00    0.000    0.000     185.4    153.7    0.55    82.7     224.4      82.0      56.3      43.1      22.4      22.0    0.000     0.000     0.000     0.000     0.000    0.55     0.00    0.00      0   -9.90   -9.00       15.9       15.9       15.9       16.0       16.0       16.0       15.9       15.9       15.9       15.9       15.9       15.9        0.0        0.0        0.0        0.0        0.0        0.0        0.0        0.0        0.0        0.0        0.0        0.0      0.0       0.0      -4.1      -2.4      -0.8    391.85
    24     1  2011    24     2     190.5     6.1      0.0    0.0    6.1    0.0      0.9      0.0   -9.90      0.1      0.1    100      0.0      0.0   100      0.1     0.1     100      0.0    0.56     -9     -9      0      0      0    10.0    10.0    100    -9.00      0.0      0.0      0.0   100     0.0     0.000    -9.9    0.000   -9.900      -9        0.00    0.000    0.000     190.5    158.8    0.56    89.7     228.7      83.5      57.6      44.1      22.8      22.5    0.000     0.000     0.000     0.000     0.000    0.56     0.00    0.00      0   -9.90   -9.00       22.6       15.8       15.8       15.9       15.9       15.8       15.8       15.8       15.8       15.8       15.8       15.8        0.0        0.0        0.0        0.0        0.0        0.0        0.0        0.0        0.0        0.0        0.0        0.0      6.1       0.1      -4.3      -2.6      -0.9    391.85
    25     1  2011    25     2     188.1     0.0      0.0    0.0    0.0    0.0      2.4      0.0   -9.90      0.0      0.0    100      0.0      0.0   100      0.0     0.0     100      0.0    0.57     -9     -9      0      0      0    10.0    10.0    100    -9.00      0.0      0.0      0.0   100     0.0     0.000    -9.9    0.000   -9.900      -9        0.00    0.000    0.000     188.1    156.3    0.57    88.2     232.9      85.1      58.5      44.8      23.2      22.9    0.000     0.000     0.000     0.000     0.000    0.57     0.00    0.00      0   -9.90   -9.00       16.7       16.6       16.2       16.4       16.2       16.1       16.0       16.0       16.0       15.9       15.9       15.9        0.0        0.0        0.0        0.0        0.0        0.0        0.0        0.0        0.0        0.0        0.0        0.0      0.0       0.0     -12.1      -7.8      -3.4    391.85
    26     1  2011    26     2     185.8     0.0      0.0    0.0    0.0    0.0      2.3      0.0   -9.90      0.0      0.0    100      0.0      0.0   100      0.0     0.0     100      0.0    0.58     -9     -9      0      0      0    10.0    10.0    100    -9.00      0.0      0.0      0.0   100     0.0     0.000    -9.9    0.000   -9.900      -9        0.00    0.000    0.000     185.8    154.0    0.58    87.5     237.1      86.6      59.5      45.6      23.7      23.3    0.000     0.000     0.000     0.000     0.000    0.58     0.00    0.00      0   -9.90   -9.00       15.9       15.9       15.9       16.0       16.0       16.0       16.0       15.9       15.9       15.9       15.9       15.9        0.0        0.0        0.0        0.0        0.0        0.0        0.0        0.0        0.0        0.0        0.0        0.0      0.0       0.0     -14.9     -12.4      -9.9    391.85
    27     1  2011    27     2     184.6     0.0      0.0    0.0    0.0    0.0      1.2      0.0   -9.90      0.0      0.0    100      0.0      0.0   100      0.0     0.0     100      0.0    0.59     -9     -9      0      0      0    10.0    10.0    100    -9.00      0.0      0.0      0.0   100     0.0     0.000    -9.9    0.000   -9.900      -9        0.00    0.000    0.000     184.6    152.9    0.59    88.4     241.2      88.1      60.6      46.4      24.1      23.7    0.000     0.000     0.000     0.000     0.000    0.59     0.00    0.00      0   -9.90   -9.00       15.8       15.8       15.8       15.9       15.9       15.9       15.9       15.9       15.9       15.9       15.8       15.8        0.0        0.0        0.0        0.0        0.0        0.0        0.0        0.0        0.0        0.0        0.0        0.0      0.0       0.0     -15.1     -10.8      -6.5    391.85
    28     1  2011    28     2     184.2     0.0      0.0    0.0    0.0    0.0      0.4      0.0   -9.90      0.0      0.0    100      0.0      0.0   100      0.0     0.0     100      0.0    0.60     -9     -9      0      0      0    10.0    10.0    100    -9.00      0.0      0.0      0.0   100     0.0     0.000    -9.9    0.000   -9.900      -9        0.00    0.000    0.000     184.2    152.6    0.60    89.7     245.3      89.6      61.6      47.2      24.5      24.2    0.000     0.000     0.000     0.000     0.000    0.60     0.00    0.00      0   -9.90   -9.00       15.8       15.8       15.8       15.8       15.8       15.8       15.8       15.8       15.8       15.8       15.8       15.8        0.0        0.0        0.0        0.0        0.0        0.0        0.0        0.0        0.0        0.0        0.0        0.0      0.0       0.0      -9.3      -7.6      -5.9    391.85
    29     1  2011    29     2     190.5     6.5      0.0    0.0    6.5    0.0      0.1      0.0   -9.90      0.1      0.1    100      0.0      0.0   100      0.1     0.1     100      0.0    0.61     -9     -9      0      0      0    10.0    10.0    100    -9.00      0.0      0.0      0.0   100     0.0     0.000    -9.9    0.000   -9.900      -9        0.00    0.000    0.000     190.5    158.9    0.61    97.5     249.3      91.1      62.8      48.2      25.0      24.6    0.000     0.000     0.000     0.000     0.000    0.61     0.00    0.00      0   -9.90   -9.00       23.1       15.8       15.8       15.8       15.8       15.8       15.8       15.8       15.8       15.8       15.8       15.8        0.0        0.0        0.0        0.0        0.0        0.0        0.0        0.0        0.0        0.0        0.0        0.0      6.5       0.1     -10.7      -7.0      -3.3    391.85
    30     1  2011    30     2     188.2     0.0      0.0    0.0    0.0    0.0      2.2      0.0   -9.90      0.0      0.0    100      0.0      0.0   100      0.0     0.0     100      0.0    0.62     -9     -9      0      0      0    10.0    10.0    100    -9.00      0.0      0.0      0.0   100     0.0     0.000    -9.9    0.000   -9.900      -9        0.00    0.000    0.000     188.2    156.4    0.62    95.9     253.3      92.5      63.6      48.7      25.3      25.0    0.000     0.000     0.000     0.000     0.000    0.62     0.00    0.00      0   -9.90   -9.00       16.7       16.6       16.3       16.5       16.2       16.1       16.0       16.0       16.0       15.9       15.9       15.9        0.0        0.0        0.0        0.0        0.0        0.0        0.0        0.0        0.0        0.0        0.0        0.0      0.0       0.0     -11.7      -8.1      -4.4    391.85
    31     1  2011    31     2     198.5    13.3      0.0    0.0   12.8    0.5      2.4      0.0   -9.90      0.1      0.1    100      0.0      0.0   100      0.1     0.1     100      0.0    0.63     -9     -9      0      0      0    10.0    10.0    100    -9.00      0.0      0.0      0.0   100     0.0     0.000    -9.9    0.000   -9.900      -9        0.00    0.000    0.000     198.5    166.7    0.63   107.7     257.2      93.9      64.8      49.7      25.8      25.4    0.000     0.000     0.000     0.000     0.000    0.63     0.00    0.00      0   -9.90   -9.00       30.3       15.9       15.9       16.0       16.0       16.0       16.0       16.0       15.9       15.9       15.9       15.9        0.0        0.0        0.0        0.0        0.0        0.0        0.0        0.0        0.0        0.0        0.0        0.0     13.3       0.1      -4.9      -2.7      -0.5    391.85
     1     2  2011    32     2     210.0    19.2      0.0    0.0   17.7    1.5      6.1      0.0   -9.90      0.1      0.1    100      0.0      0.0   100      0.1     0.1     100      0.0    0.64     -9     -9      0      0      0    10.0    10.0    100    -9.00      0.0      0.0      0.0   100     0.0     0.000    -9.9    0.000   -9.900      -9        0.00    0.000    0.000     210.0    177.8    0.64   119.3     261.1      95.4      65.8      50.5      26.2      25.8    0.000     0.000     0.000     0.000     0.000    0.64     0.00    0.00      0   -9.90   -9.00       37.0       17.1       16.7       17.2       16.8       16.5       16.4       16.3       16.2       16.1       16.1       16.1        0.0        0.0        0.0        0.0        0.0        0.0        0.0        0.0        0.0        0.0        0.0        0.0     19.2       0.1      -3.0      -1.1       0.7    391.85
     2     2  2011    33     2     212.1    15.9      0.0    0.0   15.0    0.9     12.7      0.0   -9.90      0.1      0.1    100      0.0      0.0   100      0.1     0.1     100      0.0    0.65     -9     -9      0      0      0    10.0    10.0    100    -9.00      0.0      0.0      0.0   100     0.0     0.000    -9.9    0.000   -9.900      -9        0.00    0.000    0.000     212.1    179.4    0.65   120.8     265.0      96.8      66.8      51.2      26.6      26.2    0.000     0.000     0.000     0.000     0.000    0.65     0.00    0.00      0   -9.90   -9.00       34.0       17.1       17.0       18.1       17.5       17.1       16.9       16.7       16.6       16.5       16.4       16.3        0.0        0.0        0.0        0.0        0.0        0.0        0.0        0.0        0.0        0.0        0.0        0.0     15.9       0.1      -3.0      -1.4       0.3    391.85
     3     2  2011    34     2     212.1    16.0      0.0    0.0   15.1    0.9     14.9      0.0   -9.90      0.2      0.2    100      0.0      0.0   100      0.2     0.2     100      0.0    0.66     -9     -9      0      0      0    10.0    10.0    100    -9.00      0.0      0.0      0.0   100     0.0     0.000    -9.9    0.000   -9.900      -9        0.00    0.000    0.000     212.1    179.2    0.66   121.9     268.8      98.2      68.0      52.2      27.0      26.5    0.000     0.000     0.000     0.000     0.000    0.66     0.00    0.00      0   -9.90   -9.00       34.0       17.2       16.9       17.8       17.4       17.1       16.9       16.7       16.6       16.5       16.5       16.4        0.0        0.0        0.0        0.0        0.0        0.0        0.0        0.0        0.0        0.0        0.0        0.0     16.0       0.2      -4.3      -2.4      -0.5    391.85
     4     2  2011    35     2     219.3    26.1      0.0    0.0   22.8    3.3     15.4      0.0   -9.90      0.2      0.2    100      0.0      0.0   100      0.2     0.2     100      0.0    0.67     -9     -9      0      0      0    10.0    10.0    100    -9.00      0.0      0.0      0.0   100     0.0     0.000    -9.9    0.000   -9.900      -9        0.00    0.000    0.000     219.3    186.4    0.67   130.7     272.6      99.5      69.0      52.9      27.4      26.9    0.000     0.000     0.000     0.000     0.000    0.67     0.00    0.00      0   -9.90   -9.00       42.3       17.2       16.9       17.8       17.4       17.1       16.9       16.7       16.6       16.5       16.5       16.4        0.0        0.0        0.0        0.0        0.0        0.0        0.0        0.0        0.0        0.0        0.0        0.0     26.1       0.2      -4.1      -3.5      -2.9    391.85
     5     2  2011    36     2     217.4    19.1      0.0    0.0   17.6    1.5     19.2      0.0   -9.90      0.2      0.2    100      0.0      0.0   100      0.2     0.2     100      0.0    0.67     -9     -9      0      0      0    10.0    10.0    100    -9.00      0.0      0.0      0.0   100     0.0     0.000    -9.9    0.000   -9.900      -9        0.00    0.000    0.000     217.4    184.2    0.67   129.0     276.4     100.9      69.9      53.6      27.8      27.3    0.000     0.000     0.000     0.000     0.000    0.67     0.00    0.00      0   -9.90   -9.00       36.4       16.7       17.1       18.7       18.0       17.6       17.3       17.0       16.9       16.8       16.7       16.6        0.0        0.0        0.0        0.0        0.0        0.0        0.0        0.0        0.0        0.0        0.0        0.0     19.1       0.2      -4.2      -3.5      -2.8    391.85
     6     2  2011    37     2     210.2    11.9      0.0    0.0   11.5    0.4     18.6      0.0   -9.90      0.1      0.1    100      0.0      0.0   100      0.1     0.1     100      0.0    0.68     -9     -9      0      0      0    10.0    10.0    100    -9.00      0.0      0.0      0.0   100     0.0     0.000    -9.9    0.000   -9.900      -9        0.00    0.000    0.000     210.2    177.1    0.68   123.7     280.1     102.2      70.6      54.1      28.1      27.7    0.000     0.000     0.000     0.000     0.000    0.68     0.00    0.00      0   -9.90   -9.00       30.1       17.1       17.0       18.0       17.6       17.3       17.1       16.9       16.8       16.7       16.6       16.5        0.0        0.0        0.0        0.0        0.0        0.0        0.0        0.0        0.0        0.0        0.0        0.0     11.9       0.1      -3.3      -2.5      -1.6    391.85
     7     2  2011    38     2     205.1     9.9      0.0    0.0    9.7    0.2     14.6      0.0   -9.90      0.2      0.2    100      0.0      0.0   100      0.2     0.2     100      0.0    0.69     -9     -9      0      0      0    10.0    10.0    100    -9.00      0.0      0.0      0.0   100     0.0     0.000    -9.9    0.000   -9.900      -9        0.00    0.000    0.000     205.1    172.3    0.69   121.1     283.7     103.6      71.8      55.1      28.5      28.1    0.000     0.000     0.000     0.000     0.000    0.69     0.00    0.00      0   -9.90   -9.00       27.9       17.1       16.7       17.4       17.1       16.9       16.8       16.6       16.6       16.5       16.4       16.4        0.0        0.0        0.0        0.0        0.0        0.0        0.0        0.0        0.0        0.0        0.0        0.0      9.9       0.2      -2.9      -2.2      -1.6    391.85
     8     2  2011    39     2     200.9     7.5      0.0    0.0    7.5    0.0     11.5      0.0   -9.90      0.2      0.2    100      0.0      0.0   100      0.2     0.2     100      0.0    0.70     -9     -9      0      0      0    10.0    10.0    100    -9.00      0.0      0.0      0.0   100     0.0     0.000    -9.9    0.000   -9.900      -9        0.00    0.000    0.000     200.9    168.4    0.70   119.1     287.4     104.9      72.7      55.8      28.9      28.4    0.000     0.000     0.000     0.000     0.000    0.70     0.00    0.00      0   -9.90   -9.00       25.1       17.0       16.6       17.2       16.9       16.7       16.6       16.5       16.4       16.3       16.3       16.3        0.0        0.0        0.0        0.0        0.0        0.0        0.0        0.0        0.0        0.0        0.0        0.0      7.5       0.2      -5.3      -3.6      -1.9    391.85
     9     2  2011    40     2     194.8     3.2      0.0    0.0    3.2    0.0      9.2      0.0   -9.90      0.1      0.1    100      0.0      0.0   100      0.1     0.1     100      0.0    0.71     -9     -9      0      0      0    10.0    10.0    100    -9.00      0.0      0.0      0.0   100     0.0     0.000    -9.9    0.000   -9.900      -9        0.00    0.000    0.000     194.8    162.4    0.71   114.7     291.0     106.2      73.4      56.3      29.2      28.8    0.000     0.000     0.000     0.000     0.000    0.71     0.00    0.00      0   -9.90   -9.00       19.9       16.9       16.5       16.9       16.7       16.5       16.4       16.4       16.3       16.3       16.2       16.2        0.0        0.0        0.0        0.0        0.0        0.0        0.0        0.0        0.0        0.0        0.0        0.0      3.2       0.1      -9.1      -6.8      -4.5    391.85
    10     2  2011    41     2     204.4    17.0      0.0    0.0   15.9    1.1      6.2      0.0   -9.90      0.2      0.2    100      0.0      0.0   100      0.2     0.2     100      0.0    0.72     -9     -9      0      0      0    10.0    10.0    100    -9.00      0.0      0.0      0.0   100     0.0     0.000    -9.9    0.000   -9.900      -9        0.00    0.000    0.000     204.4    172.2    0.72   126.5     294.6     107.5      74.6      57.2      29.6      29.2    0.000     0.000     0.000     0.000     0.000    0.72     0.00    0.00      0   -9.90   -9.00       34.2       16.4       16.1       16.4       16.3       16.2       16.2       16.1       16.1       16.1       16.1       16.0        0.0        0.0        0.0        0.0        0.0        0.0        0.0        0.0        0.0        0.0        0.0        0.0     17.0       0.2      -5.1      -3.2      -1.4    391.85
    11     2  2011    42     2     194.6     0.3      0.0    0.0    0.3    0.0      9.7      0.0   -9.90      0.4      0.4    100      0.0      0.0   100      0.4     0.4     100      0.0    0.72     -9     -9      0      0      0    10.0    10.0    100    -9.00      0.0      0.0      0.0   100     0.0     0.000    -9.9    0.000   -9.900      -9        0.00    0.000    0.000     194.6    162.1    0.72   117.0     298.1     108.8      76.0      58.4      30.1      29.5    0.000     0.000     0.000     0.000     0.000    0.72     0.00    0.00      0   -9.90   -9.00       16.7       17.2       16.9       17.7       17.1       16.8       16.6       16.5       16.4       16.3       16.2       16.2        0.0        0.0        0.0        0.0        0.0        0.0        0.0        0.0        0.0        0.0        0.0        0.0      0.3       0.4     -14.7      -8.0      -1.3    391.85
    12     2  2011    43     2     187.7     0.0      0.0    0.0    0.0    0.0      6.7      0.0   -9.90      0.3      0.2     74      0.0      0.0   100      0.3     0.2      74      0.0    0.73     -9     -9      0      0      0    10.0    10.0    100    -9.00      0.0      0.0      0.0   100     0.0     0.000    -9.9    0.000   -9.900      -9        0.00    0.000    0.000     187.7    155.5    0.73   112.3     301.7     110.1      76.6      58.8      30.4      29.9    0.000     0.000     0.000     0.000     0.000    0.73     0.00    0.00      0   -9.90   -9.00       15.7       16.0       16.0       16.4       16.2       16.2       16.2       16.2       16.1       16.1       16.1       16.1        0.0        0.0        0.0        0.0        0.0        0.0        0.0        0.0        0.0        0.0        0.0        0.0      0.0       0.3     -14.9     -12.2      -9.5    391.85
    13     2  2011    44     2     185.1     0.5      0.0    0.0    0.5    0.0      2.6      0.0   -9.90      0.5      0.5    100      0.0      0.0   100      0.5     0.5     100      0.0    0.74     -9     -9      0      0      0    10.0    10.0    100    -9.00      0.0      0.0      0.0   100     0.0     0.000    -9.9    0.000   -9.900      -9        0.00    0.000    0.000     185.1    153.3    0.74   112.0     305.2     111.4      78.1      60.0      30.8      30.2    0.000     0.000     0.000     0.000     0.000    0.74     0.00    0.00      0   -9.90   -9.00       15.8       15.8       15.8       16.0       15.9       15.9       15.9       15.9       15.9       15.9       15.9       15.9        0.0        0.0        0.0        0.0        0.0        0.0        0.0        0.0        0.0        0.0        0.0        0.0      0.5       0.5     -13.2     -10.1      -7.1    391.85
    14     2  2011    45     2     187.3     3.3      0.0    0.0    3.3    0.0      0.8      0.0   -9.90      0.4      0.4    100      0.0      0.0   100      0.4     0.4     100      0.0    0.75     -9     -9      0      0      0    10.0    10.0    100    -9.00      0.0      0.0      0.0   100     0.0     0.000    -9.9    0.000   -9.900      -9        0.00    0.000    0.000     187.3    155.6    0.75   115.8     308.6     112.7      78.7      60.4      31.1      30.6    0.000     0.000     0.000     0.000     0.000    0.75     0.00    0.00      0   -9.90   -9.00       19.1       15.8       15.8       15.9       15.8       15.8       15.8       15.8       15.8       15.8       15.8       15.8        0.0        0.0        0.0        0.0        0.0        0.0        0.0        0.0        0.0        0.0        0.0        0.0      3.3       0.4     -11.7      -9.9      -8.1    391.85
    15     2  2011    46     2     190.2     4.4      0.0    0.0    4.4    0.0      1.2      0.0   -9.90      0.3      0.3    100      0.0      0.0   100      0.3     0.3     100      0.0    0.76     -9     -9      0      0      0    10.0    10.0    100    -9.00      0.0      0.0      0.0   100     0.0     0.000    -9.9    0.000   -9.900      -9        0.00    0.000    0.000     190.2    158.5    0.76   119.8     312.1     113.9      79.3      60.9      31.5      30.9    0.000     0.000     0.000     0.000     0.000    0.76     0.00    0.00      0   -9.90   -9.00       20.9       16.2       16.0       16.1       16.0       15.9       15.9       15.9       15.9       15.9       15.9       15.9        0.0        0.0        0.0        0.0        0.0        0.0        0.0        0.0        0.0        0.0        0.0        0.0      4.4       0.3     -11.9     -11.4     -10.9    391.85
    16     2  2011    47     2     189.6     2.3      0.0    0.0    2.3    0.0      2.6      0.0   -9.90      0.3      0.3    100      0.0      0.0   100      0.3     0.3     100      0.0    0.76     -9     -9      0      0      0    10.0    10.0    100    -9.00      0.0      0.0      0.0   100     0.0     0.000    -9.9    0.000   -9.900      -9        0.00    0.000    0.000     189.6    157.8    0.76   120.1     315.5     115.2      80.2      61.5      31.8      31.3    0.000     0.000     0.000     0.000     0.000    0.76     0.00    0.00      0   -9.90   -9.00       18.5       16.5       16.2       16.3       16.2       16.1       16.1       16.0       16.0       16.0       15.9       15.9        0.0        0.0        0.0        0.0        0.0        0.0        0.0        0.0        0.0        0.0        0.0        0.0      2.3       0.3     -11.0      -9.9      -8.9    391.85
    17     2  2011    48     2     187.3     0.9      0.0    0.0    0.9    0.0      2.9      0.0   -9.90      0.3      0.3    100      0.0      0.0   100      0.3     0.3     100      0.0    0.77     -9     -9      0      0      0    10.0    10.0    100    -9.00      0.0      0.0      0.0   100     0.0     0.000    -9.9    0.000   -9.900      -9        0.00    0.000    0.000     187.3    155.4    0.77   119.0     318.9     116.4      81.0      62.2      32.2      31.6    0.000     0.000     0.000     0.000     0.000    0.77     0.00    0.00      0   -9.90   -9.00       16.7       16.2       16.1       16.2       16.1       16.0       16.0       16.0       16.0       16.0       15.9       15.9        0.0        0.0        0.0        0.0        0.0        0.0        0.0        0.0        0.0        0.0        0.0        0.0      0.9       0.3     -10.1      -8.8      -7.5    391.85
    18     2  2011    49     2     185.3     0.0      0.0    0.0    0.0    0.0      2.0      0.0   -9.90      0.1      0.1    100      0.0      0.0   100      0.1     0.1     100      0.0    0.78     -9     -9      0      0      0    10.0    10.0    100    -9.00      0.0      0.0      0.0   100     0.0     0.000    -9.9    0.000   -9.900      -9        0.00    0.000    0.000     185.3    153.5    0.78   118.5     322.3     117.6      81.3      62.4      32.5      32.0    0.000     0.000     0.000     0.000     0.000    0.78     0.00    0.00      0   -9.90   -9.00       15.8       15.9       15.9       16.0       15.9       15.9       15.9       15.9       15.9       15.9       15.9       15.9        0.0        0.0        0.0        0.0        0.0        0.0        0.0        0.0        0.0        0.0        0.0        0.0      0.0       0.1     -14.8     -11.7      -8.6    391.85
    19     2  2011    50     2     184.3     0.0      0.0    0.0    0.0    0.0      0.8      0.0   -9.90      0.1      0.1    100      0.0      0.0   100      0.1     0.1     100      0.0    0.79     -9     -9      0      0      0    10.0    10.0    100    -9.00      0.0      0.0      0.0   100     0.0     0.000    -9.9    0.000   -9.900      -9        0.00    0.000    0.000     184.3    152.6    0.79   119.0     325.6     118.8      82.1      63.0      32.8      32.3    0.000     0.000     0.000     0.000     0.000    0.79     0.00    0.00      0   -9.90   -9.00       15.7       15.8       15.8       15.8       15.8       15.8       15.8       15.8       15.8       15.8       15.8       15.8        0.0        0.0        0.0        0.0        0.0        0.0        0.0        0.0        0.0        0.0        0.0        0.0      0.0       0.1     -17.0     -14.4     -11.8    391.85
    20     2  2011    51     2     183.9     0.0      0.0    0.0    0.0    0.0      0.3      0.0   -9.90      0.2      0.2    100      0.0      0.0   100      0.2     0.2     100      0.0    0.80     -9     -9      0      0      0    10.0    10.0    100    -9.00      0.0      0.0      0.0   100     0.0     0.000    -9.9    0.000   -9.900      -9        0.00    0.000    0.000     183.9    152.2    0.80   119.9     329.0     120.1      83.3      63.9      33.2      32.6    0.000     0.000     0.000     0.000     0.000    0.80     0.00    0.00      0   -9.90   -9.00       15.5       15.8       15.8       15.8       15.8       15.8       15.8       15.8       15.8       15.8       15.8       15.8        0.0        0.0        0.0        0.0        0.0        0.0        0.0        0.0        0.0        0.0        0.0        0.0      0.0       0.2     -16.2     -13.6     -11.1    391.85
    21     2  2011    52     2     183.6     0.0      0.0    0.0    0.0    0.0      0.1      0.0   -9.90      0.2      0.2    100      0.0      0.0   100      0.2     0.2     100      0.0    0.80     -9     -9      0      0      0    10.0    10.0    100    -9.00      0.0      0.0      0.0   100     0.0     0.000    -9.9    0.000   -9.900      -9        0.00    0.000    0.000     183.6    152.0    0.80   120.8     332.3     121.3      84.1      64.6      33.5      33.0    0.000     0.000     0.000     0.000     0.000    0.80     0.00    0.00      0   -9.90   -9.00       15.3       15.8       15.8       15.8       15.8       15.8       15.8       15.8       15.8       15.8       15.8       15.8        0.0        0.0        0.0        0.0        0.0        0.0        0.0        0.0        0.0        0.0        0.0        0.0      0.0       0.2     -16.0     -14.3     -12.7    391.85
    22     2  2011    53     2     183.4     0.0      0.0    0.0    0.0    0.0      0.0      0.0   -9.90      0.2      0.2     99      0.0      0.0   100      0.2     0.2      99      0.0    0.81     -9     -9      0      0      0    10.0    10.0    100    -9.00      0.0      0.0      0.0   100     0.0     0.000    -9.9    0.000   -9.900      -9        0.00    0.000    0.000     183.4    151.8    0.81   121.8     335.6     122.5      84.9      65.2      33.9      33.3    0.000     0.000     0.000     0.000     0.000    0.81     0.00    0.00      0   -9.90   -9.00       15.1       15.8       15.8       15.8       15.8       15.8       15.8       15.8       15.8       15.8       15.8       15.8        0.0        0.0        0.0        0.0        0.0        0.0        0.0        0.0        0.0        0.0        0.0        0.0      0.0       0.2     -17.1     -14.7     -12.3    391.85
    23     2  2011    54     2     183.8     0.6      0.0    0.0    0.6    0.0      0.0      0.0   -9.90      0.2      0.2    100      0.0      0.0   100      0.2     0.2     100      0.0    0.82     -9     -9      0      0      0    10.0    10.0    100    -9.00      0.0      0.0      0.0   100     0.0     0.000    -9.9    0.000   -9.900      -9        0.00    0.000    0.000     183.8    152.2    0.82   123.4     338.8     123.6      85.8      65.8      34.2      33.6    0.000     0.000     0.000     0.000     0.000    0.82     0.00    0.00      0   -9.90   -9.00       15.6       15.8       15.8       15.8       15.8       15.8       15.8       15.8       15.8       15.8       15.8       15.8        0.0        0.0        0.0        0.0        0.0        0.0        0.0        0.0        0.0        0.0        0.0        0.0      0.6       0.2     -18.7     -14.4     -10.2    391.85
    24     2  2011    55     2     191.0     7.5      0.0    0.0    7.5    0.0      0.0      0.0   -9.90      0.3      0.3    100      0.0      0.0   100      0.3     0.3     100      0.0    0.83     -9     -9      0      0      0    10.0    10.0    100    -9.00      0.0      0.0      0.0   100     0.0     0.000    -9.9    0.000   -9.900      -9        0.00    0.000    0.000     191.0    159.4    0.83   131.8     342.1     124.8      86.9      66.8      34.6      34.0    0.000     0.000     0.000     0.000     0.000    0.83     0.00    0.00      0   -9.90   -9.00       23.7       15.8       15.8       15.8       15.8       15.8       15.8       15.8       15.8       15.8       15.8       15.8        0.0        0.0        0.0        0.0        0.0        0.0        0.0        0.0        0.0        0.0        0.0        0.0      7.5       0.3     -10.2      -7.7      -5.2    391.85
    25     2  2011    56     2     195.7     7.3      0.0    0.0    7.3    0.0      2.4      0.0   -9.90      0.2      0.2    100      0.0      0.0   100      0.2     0.2     100      0.0    0.83     -9     -9      0      0      0    10.0    10.0    100    -9.00      0.0      0.0      0.0   100     0.0     0.000    -9.9    0.000   -9.900      -9        0.00    0.000    0.000     195.7    163.9    0.83   137.2     345.3     126.0      87.4      67.1      34.9      34.3    0.000     0.000     0.000     0.000     0.000    0.83     0.00    0.00      0   -9.90   -9.00       24.8       16.7       16.3       16.5       16.3       16.1       16.1       16.0       16.0       15.9       15.9       15.9        0.0        0.0        0.0        0.0        0.0        0.0        0.0        0.0        0.0        0.0        0.0        0.0      7.3       0.2      -4.6      -2.2       0.1    391.85
    26     2  2011    57     2     200.1    10.0      0.0    0.0    9.8    0.2      5.1      0.0   -9.90      0.3      0.3    100      0.0      0.0   100      0.3     0.3     100      0.0    0.84     -9     -9      0      0      0    10.0    10.0    100    -9.00      0.0      0.0      0.0   100     0.0     0.000    -9.9    0.000   -9.900      -9        0.00    0.000    0.000     200.1    168.0    0.84   142.3     348.5     127.2      88.6      68.0      35.2      34.6    0.000     0.000     0.000     0.000     0.000    0.84     0.00    0.00      0   -9.90   -9.00       27.7       16.8       16.4       16.8       16.5       16.4       16.2       16.2       16.1       16.1       16.0       16.0        0.0        0.0        0.0        0.0        0.0        0.0        0.0        0.0        0.0        0.0        0.0        0.0     10.0       0.3      -2.7      -1.0       0.7    391.85
    27     2  2011    58     2     196.6     4.6      0.0    0.0    4.6    0.0      7.8      0.0   -9.90      0.3      0.3    100      0.0      0.0   100      0.3     0.3     100      0.0    0.85     -9     -9      0      0      0    10.0    10.0    100    -9.00      0.0      0.0      0.0   100     0.0     0.000    -9.9    0.000   -9.900      -9        0.00    0.000    0.000     196.6    164.3    0.85   139.6     351.7     128.3      89.4      68.6      35.5      34.9    0.000     0.000     0.000     0.000     0.000    0.85     0.00    0.00      0   -9.90   -9.00       21.5       17.0       16.6       17.1       16.8       16.6       16.4       16.4       16.3       16.2       16.2       16.1        0.0        0.0        0.0        0.0        0.0        0.0        0.0        0.0        0.0        0.0        0.0        0.0      4.6       0.3      -4.8      -3.6      -2.4    391.85
    28     2  2011    59     2     189.6     0.0      0.0    0.0    0.0    0.0      6.9      0.0   -9.90      0.2      0.2    100      0.0      0.0   100      0.2     0.2     100      0.0    0.85     -9     -9      0      0      0    10.0    10.0    100    -9.00      0.0      0.0      0.0   100     0.0     0.000    -9.9    0.000   -9.900      -9        0.00    0.000    0.000     189.6    157.4    0.85   134.0     354.9     129.5      89.8      69.0      35.8      35.3    0.000     0.000     0.000     0.000     0.000    0.85     0.00    0.00      0   -9.90   -9.00       16.3       16.6       16.3       16.5       16.4       16.3       16.3       16.2       16.2       16.1       16.1       16.1        0.0        0.0        0.0        0.0        0.0        0.0        0.0        0.0        0.0        0.0        0.0        0.0      0.0       0.2      -9.7      -6.4      -3.1    391.85
     1     3  2011    60     2     185.7     0.0      0.0    0.0    0.0    0.0      3.7      0.0   -9.90      0.2      0.2    100      0.0      0.0   100      0.2     0.2     100      0.0    0.86     -9     -9      0      0      0    10.0    10.0    100    -9.00      0.0      0.0      0.0   100     0.0     0.000    -9.9    0.000   -9.900      -9        0.00    0.000    0.000     185.7    153.8    0.86   131.8     358.0     130.6      90.6      69.6      36.2      35.6    0.000     0.000     0.000     0.000     0.000    0.86     0.00    0.00      0   -9.90   -9.00       15.7       15.9       15.9       16.0       16.0       16.0       16.0       16.0       16.0       16.0       16.0       15.9        0.0        0.0        0.0        0.0        0.0        0.0        0.0        0.0        0.0        0.0        0.0        0.0      0.0       0.2     -10.2      -6.3      -2.4    391.85
     2     3  2011    61     2     184.2     0.0      0.0    0.0    0.0    0.0      1.3      0.0   -9.90      0.3      0.3    100      0.0      0.0   100      0.3     0.3     100      0.0    0.87     -9     -9      0      0      0    10.0    10.0    100    -9.00      0.0      0.0      0.0   100     0.0     0.000    -9.9    0.000   -9.900      -9        0.00    0.000    0.000     184.2    152.5    0.87   131.8     361.2     131.8      91.8      70.5      36.5      35.9    0.000     0.000     0.000     0.000     0.000    0.87     0.00    0.00      0   -9.90   -9.00       15.4       15.8       15.8       15.9       15.9       15.9       15.9       15.9       15.9       15.9       15.8       15.8        0.0        0.0        0.0        0.0        0.0        0.0        0.0        0.0        0.0        0.0        0.0        0.0      0.0       0.3      -6.7      -3.9      -1.0    391.85
     3     3  2011    62     2     183.6     0.0      0.0    0.0    0.0    0.0      0.4      0.0   -9.90      0.2      0.2    100      0.0      0.0   100      0.2     0.2     100      0.0    0.88     -9     -9      0      0      0    10.0    10.0    100    -9.00      0.0      0.0      0.0   100     0.0     0.000    -9.9    0.000   -9.900      -9        0.00    0.000    0.000     183.6    152.0    0.88   132.5     364.3     132.9      92.2      70.8      36.8      36.2    0.000     0.000     0.000     0.000     0.000    0.88     0.00    0.00      0   -9.90   -9.00       15.2       15.8       15.8       15.8       15.8       15.8       15.8       15.8       15.8       15.8       15.8       15.8        0.0        0.0        0.0        0.0        0.0        0.0        0.0        0.0        0.0        0.0        0.0        0.0      0.0       0.2      -5.2      -3.0      -0.8    391.85
     4     3  2011    63     2     183.2     0.0      0.0    0.0    0.0    0.0      0.1      0.0   -9.90      0.3      0.3    100      0.0      0.0   100      0.3     0.3     100      0.0    0.88     -9     -9      0      0      0    10.0    10.0    100    -9.00      0.0      0.0      0.0   100     0.0     0.000    -9.9    0.000   -9.900      -9        0.00    0.000    0.000     183.2    151.6    0.88   133.2     367.4     134.0      93.4      71.7      37.2      36.5    0.000     0.000     0.000     0.000     0.000    0.88     0.00    0.00      0   -9.90   -9.00       14.9       15.8       15.8       15.8       15.8       15.8       15.8       15.8       15.8       15.8       15.8       15.8        0.0        0.0        0.0        0.0        0.0        0.0        0.0        0.0        0.0        0.0        0.0        0.0      0.0       0.3      -6.2      -2.6       1.0    391.85
     5     3  2011    64     2     182.8     0.0      0.0    0.0    0.0    0.0      0.0      0.0   -9.90      0.5      0.5    100      0.0      0.0   100      0.5     0.5     100      0.0    0.89     -9     -9      0      0      0    10.0    10.0    100    -9.00      0.0      0.0      0.0   100     0.0     0.000    -9.9    0.000   -9.900      -9        0.00    0.000    0.000     182.8    151.1    0.89   133.9     370.5     135.2      94.8      72.9      37.5      36.8    0.000     0.000     0.000     0.000     0.000    0.89     0.00    0.00      0   -9.90   -9.00       14.3       15.8       15.8       15.8       15.8       15.8       15.8       15.8       15.8       15.8       15.8       15.8        0.0        0.0        0.0        0.0        0.0        0.0        0.0        0.0        0.0        0.0        0.0        0.0      0.0       0.5      -9.2      -5.0      -0.9    391.85
     6     3  2011    65     2     182.5     0.0      0.0    0.0    0.0    0.0      0.0      0.0   -9.90      0.3      0.3    100      0.0      0.0   100      0.3     0.3     100      0.0    0.90     -9     -9      0      0      0    10.0    10.0    100    -9.00      0.0      0.0      0.0   100     0.0     0.000    -9.9    0.000   -9.900      -9        0.00    0.000    0.000     182.5    150.9    0.90   134.7     373.6     136.3      94.9      72.9      37.8      37.2    0.000     0.000     0.000     0.000     0.000    0.90     0.00    0.00      0   -9.90   -9.00       14.0       15.8       15.8       15.8       15.8       15.8       15.8       15.8       15.8       15.8       15.8       15.8        0.0        0.0        0.0        0.0        0.0        0.0        0.0        0.0        0.0        0.0        0.0        0.0      0.0       0.3     -14.9      -9.6      -4.2    391.85
     7     3  2011    66     2     189.3     7.2      0.0    0.0    7.2    0.0      0.0      0.0   -9.90      0.4      0.4    100      0.0      0.0   100      0.4     0.4     100      0.0    0.90     -9     -9      0      0      0    10.0    10.0    100    -9.00      0.0      0.0      0.0   100     0.0     0.000    -9.9    0.000   -9.900      -9        0.00    0.000    0.000     189.3    157.7    0.90   142.7     376.6     137.4      96.1      73.8      38.1      37.5    0.000     0.000     0.000     0.000     0.000    0.90     0.00    0.00      0   -9.90   -9.00       21.8       15.8       15.8       15.8       15.8       15.8       15.8       15.8       15.8       15.8       15.8       15.8        0.0        0.0        0.0        0.0        0.0        0.0        0.0        0.0        0.0        0.0        0.0        0.0      7.2       0.4      -6.7      -4.1      -1.5    391.85
     8     3  2011    67     2     199.1    12.4      0.0    0.0   12.0    0.4      1.8      0.0   -9.90      0.4      0.4    100      0.0      0.0   100      0.4     0.4     100      0.0    0.91     -9     -9      0      0      0    10.0    10.0    100    -9.00      0.0      0.0      0.0   100     0.0     0.000    -9.9    0.000   -9.900      -9        0.00    0.000    0.000     199.1    167.4    0.91   153.4     379.6     138.5      96.8      74.4      38.5      37.8    0.000     0.000     0.000     0.000     0.000    0.91     0.00    0.00      0   -9.90   -9.00       29.8       16.5       16.2       16.3       16.1       16.0       16.0       16.0       15.9       15.9       15.9       15.9        0.0        0.0        0.0        0.0        0.0        0.0        0.0        0.0        0.0        0.0        0.0        0.0     12.4       0.4      -4.6      -2.8      -1.0    391.85
     9     3  2011    68     2     210.8    20.3      0.0    0.0   18.5    1.8      6.5      0.0   -9.90      0.4      0.4    100      0.0      0.0   100      0.4     0.4     100      0.0    0.92     -9     -9      0      0      0    10.0    10.0    100    -9.00      0.0      0.0      0.0   100     0.0     0.000    -9.9    0.000   -9.900      -9        0.00    0.000    0.000     210.8    178.6    0.92   165.5     382.7     139.6      97.6      75.0      38.8      38.1    0.000     0.000     0.000     0.000     0.000    0.92     0.00    0.00      0   -9.90   -9.00       37.6       17.1       16.7       17.2       16.8       16.6       16.4       16.3       16.2       16.2       16.1       16.1        0.0        0.0        0.0        0.0        0.0        0.0        0.0        0.0        0.0        0.0        0.0        0.0     20.3       0.4      -5.3      -3.5      -1.8    391.85
    10     3  2011    69     2     202.4     5.5      0.0    0.0    5.5    0.0     13.6      0.0   -9.90      0.3      0.3    100      0.0      0.0   100      0.3     0.3     100      0.0    0.93     -9     -9      0      0      0    10.0    10.0    100    -9.00      0.0      0.0      0.0   100     0.0     0.000    -9.9    0.000   -9.900      -9        0.00    0.000    0.000     202.4    169.7    0.93   157.4     385.7     140.7      98.0      75.3      39.1      38.4    0.000     0.000     0.000     0.000     0.000    0.93     0.00    0.00      0   -9.90   -9.00       22.6       17.1       17.0       18.2       17.6       17.2       16.9       16.7       16.6       16.5       16.4       16.3        0.0        0.0        0.0        0.0        0.0        0.0        0.0        0.0        0.0        0.0        0.0        0.0      5.5       0.3      -9.9      -7.3      -4.7    391.85
    11     3  2011    70     2     206.7    16.2      0.0    0.0   15.2    1.0     10.7      0.0   -9.90      0.3      0.3    100      0.0      0.0   100      0.3     0.3     100      0.0    0.93     -9     -9      0      0      0    10.0    10.0    100    -9.00      0.0      0.0      0.0   100     0.0     0.000    -9.9    0.000   -9.900      -9        0.00    0.000    0.000     206.7    174.2    0.93   163.2     388.7     141.8      98.8      75.9      39.4      38.7    0.000     0.000     0.000     0.000     0.000    0.93     0.00    0.00      0   -9.90   -9.00       33.6       16.7       16.3       16.7       16.6       16.6       16.5       16.4       16.4       16.3       16.3       16.2        0.0        0.0        0.0        0.0        0.0        0.0        0.0        0.0        0.0        0.0        0.0        0.0     16.2       0.3     -12.0      -7.5      -3.1    391.85
    12     3  2011    71     2     200.1     5.4      0.0    0.0    5.4    0.0     11.6      0.0   -9.90      0.4      0.4    100      0.0      0.0   100      0.4     0.4     100      0.0    0.94     -9     -9      0      0      0    10.0    10.0    100    -9.00      0.0      0.0      0.0   100     0.0     0.000    -9.9    0.000   -9.900      -9        0.00    0.000    0.000     200.1    167.5    0.94   157.6     391.7     142.9      99.9      76.8      39.7      39.0    0.000     0.000     0.000     0.000     0.000    0.94     0.00    0.00      0   -9.90   -9.00       22.4       17.2       16.9       17.7       17.1       16.8       16.7       16.5       16.4       16.4       16.3       16.3        0.0        0.0        0.0        0.0        0.0        0.0        0.0        0.0        0.0        0.0        0.0        0.0      5.4       0.4      -6.7      -4.8      -3.0    391.85
    13     3  2011    72     2     202.1    11.8      0.0    0.0   11.4    0.4      9.1      0.0   -9.90      0.4      0.4    100      0.0      0.0   100      0.4     0.4     100      0.0    0.95     -9     -9      0      0      0    10.0    10.0    100    -9.00      0.0      0.0      0.0   100     0.0     0.000    -9.9    0.000   -9.900      -9        0.00    0.000    0.000     202.1    169.8    0.95   161.1     394.6     144.0     100.7      77.4      40.0      39.3    0.000     0.000     0.000     0.000     0.000    0.95     0.00    0.00      0   -9.90   -9.00       29.2       16.6       16.3       16.7       16.6       16.5       16.4       16.3       16.3       16.2       16.2       16.2        0.0        0.0        0.0        0.0        0.0        0.0        0.0        0.0        0.0        0.0        0.0        0.0     11.8       0.4      -6.2      -3.9      -1.6    391.85
    14     3  2011    73     2     192.8     0.0      0.0    0.0    0.0    0.0      8.9      0.0   -9.90      0.5      0.5    100      0.0      0.0   100      0.5     0.5     100      0.0    0.95     -9     -9      0      0      0    10.0    10.0    100    -9.00      0.0      0.0      0.0   100     0.0     0.000    -9.9    0.000   -9.900      -9        0.00    0.000    0.000     192.8    160.4    0.95   152.8     397.6     145.0     101.8      78.3      40.3      39.6    0.000     0.000     0.000     0.000     0.000    0.95     0.00    0.00      0   -9.90   -9.00       16.6       17.1       16.7       17.2       16.8       16.6       16.5       16.4       16.3       16.2       16.2       16.2        0.0        0.0        0.0        0.0        0.0        0.0        0.0        0.0        0.0        0.0        0.0        0.0      0.0       0.5      -3.4      -1.9      -0.4    391.85
    15     3  2011    74     2     186.6     0.0      0.0    0.0    0.0    0.0      5.6      0.0   -9.90      0.6      0.6    100      0.0      0.0   100      0.6     0.6     100      0.0    0.96     -9     -9      0      0      0    10.0    10.0    100    -9.00      0.0      0.0      0.0   100     0.0     0.000    -9.9    0.000   -9.900      -9        0.00    0.000    0.000     186.6    154.5    0.96   148.1     400.5     146.1     103.3      79.5      40.7      39.9    0.000     0.000     0.000     0.000     0.000    0.96     0.00    0.00      0   -9.90   -9.00       15.2       16.0       16.0       16.2       16.2       16.1       16.1       16.1       16.1       16.1       16.0       16.0        0.0        0.0        0.0        0.0        0.0        0.0        0.0        0.0        0.0        0.0        0.0        0.0      0.0       0.7      -6.2      -3.0       0.2    391.85
    16     3  2011    75     2     183.5     0.0      0.0    0.0    0.0    0.0      2.1      0.0   -9.90      0.9      0.9    100      0.0      0.0   100      0.9     0.9     100      0.0    0.97     -9     -9      0      0      0    10.0    10.0    100    -9.00      0.0      0.0      0.0   100     0.0     0.000    -9.9    0.000   -9.900      -9        0.00    0.000    0.000     183.5    151.8    0.97   146.5     403.4     147.2     105.2      81.0      41.1      40.2    0.000     0.000     0.000     0.000     0.000    0.97     0.00    0.00      0   -9.90   -9.00       14.2       15.8       15.8       15.9       15.9       15.9       15.9       15.9       15.9       15.9       15.9       15.9        0.0        0.0        0.0        0.0        0.0        0.0        0.0        0.0        0.0        0.0        0.0        0.0      0.0       1.0      -9.6      -5.2      -0.8    391.85
    17     3  2011    76     2     182.3     0.0      0.0    0.0    0.0    0.0      0.6      0.0   -9.90      0.5      0.5    100      0.0      0.0   100      0.5     0.5     100      0.0    0.97     -9     -9      0      0      0    10.0    10.0    100    -9.00      0.0      0.0      0.0   100     0.0     0.000    -9.9    0.000   -9.900      -9        0.00    0.000    0.000     182.3    150.7    0.97   146.5     406.3     148.2     104.4      80.3      41.3      40.5    0.000     0.000     0.000     0.000     0.000    0.97     0.00    0.00      0   -9.90   -9.00       13.6       15.8       15.8       15.8       15.8       15.8       15.8       15.8       15.8       15.8       15.8       15.8        0.0        0.0        0.0        0.0        0.0        0.0        0.0        0.0        0.0        0.0        0.0        0.0      0.0       0.6      -9.8      -6.4      -3.0    391.85
    18     3  2011    77     2     187.2     5.5      0.0    0.0    5.5    0.0      0.2      0.0   -9.90      0.5      0.5    100      0.0      0.0   100      0.5     0.5     100      0.0    0.98     -9     -9      0      0      0    10.0    10.0    100    -9.00      0.0      0.0      0.0   100     0.0     0.000    -9.9    0.000   -9.900      -9        0.00    0.000    0.000     187.2    155.6    0.98   152.4     409.2     149.3     104.8      80.6      41.5      40.8    0.000     0.000     0.000     0.000     0.000    0.98     0.00    0.00      0   -9.90   -9.00       19.3       15.8       15.8       15.8       15.8       15.8       15.8       15.8       15.8       15.8       15.8       15.8        0.0        0.0        0.0        0.0        0.0        0.0        0.0        0.0        0.0        0.0        0.0        0.0      5.5       0.5      -5.5      -4.2      -3.0    391.85
    19     3  2011    78     2     185.6     0.0      0.0    0.0    0.0    0.0      1.1      0.0   -9.90      0.5      0.5    100      0.0      0.0   100      0.5     0.5     100      0.0    0.99     -9     -9      0      0      0    10.0    10.0    100    -9.00      0.0      0.0      0.0   100     0.0     0.000    -9.9    0.000   -9.900      -9        0.00    0.000    0.000     185.6    153.9    0.99   151.8     412.1     150.3     105.9      81.5      41.9      41.1    0.000     0.000     0.000     0.000     0.000    0.99     0.00    0.00      0   -9.90   -9.00       15.7       16.2       16.0       16.1       16.0       15.9       15.9       15.9       15.9       15.9       15.9       15.8        0.0        0.0        0.0        0.0        0.0        0.0        0.0        0.0        0.0        0.0        0.0        0.0      0.0       0.6      -5.6      -2.9      -0.3    391.85
    20     3  2011    79     2     184.1     0.0      0.0    0.0    0.0    0.0      1.0      0.0   -9.90      0.5      0.5    100      0.0      0.0   100      0.5     0.5     100      0.0    0.99     -9     -9      0      0      0    10.0    10.0    100    -9.00      0.0      0.0      0.0   100     0.0     0.000    -9.9    0.000   -9.900      -9        0.00    0.000    0.000     184.1    152.4    0.99   151.4     415.0     151.4     106.3      81.7      42.1      41.4    0.000     0.000     0.000     0.000     0.000    0.99     0.00    0.00      0   -9.90   -9.00       15.2       15.9       15.8       15.9       15.9       15.9       15.9       15.9       15.9       15.8       15.8       15.8        0.0        0.0        0.0        0.0        0.0        0.0        0.0        0.0        0.0        0.0        0.0        0.0      0.0       0.5      -6.0      -2.8       0.5    391.85
    21     3  2011    80     2     208.8    29.4      0.0    0.0   25.6    3.8      0.5      0.0   -9.90      0.5      0.5    100      0.0      0.0   100      0.5     0.5     100      0.0    1.00     -9     -9      0      0      0    10.0    10.0    100    -9.00      0.0      0.0      0.0   100     0.0     0.000    -9.9    0.000   -9.900      -9        0.00    0.000    0.000     208.8    177.1    1.00   177.1     417.9     152.4     107.0      82.3      42.4      41.7    0.000     0.000     0.000     0.000     0.000    1.00     0.00    0.00      0   -9.90   -9.00       42.6       16.8       15.8       15.8       15.8       15.8       15.8       15.8       15.8       15.8       15.8       15.8        0.0        0.0        0.0        0.0        0.0        0.0        0.0        0.0        0.0        0.0        0.0        0.0     29.4       0.5      -0.2       1.6       3.4    391.85
    22     3  2011    81     2     217.8    23.6      0.0    0.0   21.0    2.6     11.4      0.0   -9.90      0.6      0.6    100      0.0      0.0   100      0.6     0.6     100      0.0    1.00     -9     -9      0      0      0    10.0    10.0    100    -9.00      0.0      0.0      0.0   100     0.0     0.000    -9.9    0.000   -9.900      -9        0.00    0.000    0.000     217.8    185.1    1.00   185.1     417.9     152.4     107.8      82.9      42.5      41.7    0.000     0.000     0.000     0.000     0.000    1.00     0.00    0.00      0   -9.90   -9.00       39.8       16.7       17.1       18.6       17.8       17.2       16.9       16.7       16.6       16.4       16.3       16.3        0.0        0.0        0.0        0.0        0.0        0.0        0.0        0.0        0.0        0.0        0.0        0.0     23.6       0.7      -2.0       0.6       3.1    391.85
    23     3  2011    82     2     221.1    25.3      0.0    0.0   22.2    3.1     18.4      0.0   -9.90      0.5      0.5    100      0.0      0.0   100      0.5     0.5     100      0.0    1.00     -9     -9      0      0      0    10.0    10.0    100    -9.00      0.0      0.0      0.0   100     0.0     0.000    -9.9    0.000   -9.900      -9        0.00    0.000    0.000     221.1    188.0    1.00   188.0     417.9     152.4     107.4      82.6      42.5      41.7    0.000     0.000     0.000     0.000     0.000    1.00     0.00    0.00      0   -9.90   -9.00       41.3       16.9       17.1       18.4       17.9       17.5       17.2       17.0       16.8       16.7       16.6       16.5        0.0        0.0        0.0        0.0        0.0        0.0        0.0        0.0        0.0        0.0        0.0        0.0     25.3       0.6      -2.5       0.4       3.4    391.85
    24     3  2011    83     2     199.7     0.0      0.0    0.0    0.0    0.0     20.8      0.0   -9.90      0.6      0.6    100      0.0      0.0   100      0.6     0.6     100      0.0    1.00     -9     -9      0      0      0    10.0    10.0    100    -9.00      0.0      0.0      0.0   100     0.0     0.000    -9.9    0.000   -9.900      -9        0.00    0.000    0.000     199.7    166.4    1.00   166.4     417.9     152.4     107.8      82.9      42.5      41.7    0.000     0.000     0.000     0.000     0.000    1.00     0.00    0.00      0   -9.90   -9.00       16.1       16.8       17.1       18.6       18.0       17.6       17.3       17.1       16.9       16.8       16.7       16.6        0.0        0.0        0.0        0.0        0.0        0.0        0.0        0.0        0.0        0.0        0.0        0.0      0.0       0.7      -4.0      -0.4       3.1    391.85
    25     3  2011    84     2     188.5     0.0      0.0    0.0    0.0    0.0     10.6      0.0   -9.90      0.6      0.6    100      0.0      0.0   100      0.6     0.6     100      0.0    1.00     -9     -9      0      0      0    10.0    10.0    100    -9.00      0.0      0.0      0.0   100     0.0     0.000    -9.9    0.000   -9.900      -9        0.00    0.000    0.000     188.5    156.1    1.00   156.1     417.9     152.4     107.8      82.9      42.5      41.7    0.000     0.000     0.000     0.000     0.000    1.00     0.00    0.00      0   -9.90   -9.00       15.1       16.0       16.0       16.7       16.5       16.3       16.3       16.3       16.3       16.3       16.2       16.2        0.0        0.0        0.0        0.0        0.0        0.0        0.0        0.0        0.0        0.0        0.0        0.0      0.0       0.7      -9.6      -6.3      -3.0    391.85
    26     3  2011    85     2     184.3     0.0      0.0    0.0    0.0    0.0      3.6      0.0   -9.90      0.6      0.6    100      0.0      0.0   100      0.6     0.6     100      0.0    1.00     -9     -9      0      0      0    10.0    10.0    100    -9.00      0.0      0.0      0.0   100     0.0     0.000    -9.9    0.000   -9.900      -9        0.00    0.000    0.000     184.3    152.5    1.00   152.5     417.9     152.4     107.8      82.9      42.5      41.7    0.000     0.000     0.000     0.000     0.000    1.00     0.00    0.00      0   -9.90   -9.00       14.4       15.8       15.8       16.1       16.0       16.0       16.0       16.0       15.9       15.9       15.9       15.9        0.0        0.0        0.0        0.0        0.0        0.0        0.0        0.0        0.0        0.0        0.0        0.0      0.0       0.7     -13.2      -8.6      -4.0    391.85
    27     3  2011    86     2     190.9     8.1      0.0    0.0    8.1    0.0      1.1      0.0   -9.90      0.5      0.5    100      0.0      0.0   100      0.5     0.5     100      0.0    1.00     -9     -9      0      0      0    10.0    10.0    100    -9.00      0.0      0.0      0.0   100     0.0     0.000    -9.9    0.000   -9.900      -9        0.00    0.000    0.000     190.9    159.2    1.00   159.2     417.9     152.4     107.0      82.3      42.4      41.7    0.000     0.000     0.000     0.000     0.000    1.00     0.00    0.00      0   -9.90   -9.00       23.1       15.8       15.8       15.9       15.9       15.9       15.8       15.8       15.8       15.8       15.8       15.8        0.0        0.0        0.0        0.0        0.0        0.0        0.0        0.0        0.0        0.0        0.0        0.0      8.1       0.5      -8.9      -4.8      -0.6    391.85
    28     3  2011    87     2     194.7     7.0      0.0    0.0    7.0    0.0      2.6      0.0   -9.90      0.6      0.6    100      0.0      0.0   100      0.6     0.6     100      0.0    1.00     -9     -9      0      0      0    10.0    10.0    100    -9.00      0.0      0.0      0.0   100     0.0     0.000    -9.9    0.000   -9.900      -9        0.00    0.000    0.000     194.7    162.9    1.00   162.9     417.9     152.4     107.8      82.9      42.5      41.7    0.000     0.000     0.000     0.000     0.000    1.00     0.00    0.00      0   -9.90   -9.00       23.9       16.6       16.3       16.5       16.2       16.1       16.0       16.0       16.0       15.9       15.9       15.9        0.0        0.0        0.0        0.0        0.0        0.0        0.0        0.0        0.0        0.0        0.0        0.0      7.0       0.7      -6.6      -4.4      -2.3    391.85
[...]
    10    12  2016    -9     0     200.0     6.3      0.0    0.0    6.3    0.0     11.8      0.0   -9.90      0.0      0.0    100      0.0      0.0   100      0.0     0.0     100      0.0    1.00     -9     -9     -9      0     -9     0.0     0.0      0    -9.00      0.0      0.0      0.0   100    13.3     2.649    85.0    2.252   -9.900      68        1.28    0.000    0.000     200.0    167.4    1.00   167.4     417.9     152.4     108.2      80.6      42.5      41.7    0.000     0.000     0.000     0.000     0.000    1.00     0.00    0.00      0   -9.90   -9.00       23.9       17.0       16.6       17.1       16.9       16.7       16.6       16.5       16.4       16.4       16.3       16.3        0.0        0.0        0.0        0.0        0.0        0.0        0.0        0.0        0.0        0.0        0.0        0.0      6.3       0.0       1.0       1.6       2.3    404.41
    11    12  2016    -9     0     191.3     0.0      0.0    0.0    0.0    0.0      8.7      0.0   -9.90      0.0      0.0    100      0.0      0.0   100      0.0     0.0     100      0.0    1.00     -9     -9     -9      0     -9     0.0     0.0      0    -9.00      0.0      0.0      0.0   100    13.3     2.649    85.0    2.252   -9.900      68        1.28    0.000    0.000     191.3    159.0    1.00   159.0     417.9     152.4     108.2      80.6      42.5      41.7    0.000     0.000     0.000     0.000     0.000    1.00     0.00    0.00      0   -9.90   -9.00       16.8       16.8       16.4       16.8       16.6       16.4       16.4       16.3       16.3       16.2       16.2       16.1        0.0        0.0        0.0        0.0        0.0        0.0        0.0        0.0        0.0        0.0        0.0        0.0      0.0       0.0      -3.4      -1.4       0.7    404.41
    12    12  2016    -9     0     189.7     3.1      0.0    0.0    3.1    0.0      4.7      0.0   -9.90      0.0      0.0    100      0.0      0.0   100      0.0     0.0     100      0.0    1.00     -9     -9     -9      0     -9     0.0     0.0      0    -9.00      0.0      0.0      0.0   100    13.3     2.649    85.0    2.252   -9.900      68        1.28    0.000    0.000     189.7    157.7    1.00   157.7     417.9     152.4     108.2      80.6      42.5      41.7    0.000     0.000     0.000     0.000     0.000    1.00     0.00    0.00      0   -9.90   -9.00       19.5       15.9       15.9       16.1       16.1       16.1       16.1       16.0       16.0       16.0       16.0       16.0        0.0        0.0        0.0        0.0        0.0        0.0        0.0        0.0        0.0        0.0        0.0        0.0      3.1       0.0      -4.1      -2.5      -1.0    404.41
    13    12  2016    -9     0     186.8     0.0      0.0    0.0    0.0    0.0      2.9      0.0   -9.90      0.0      0.0    100      0.0      0.0   100      0.0     0.0     100      0.0    1.00     -9     -9     -9      0     -9     0.0     0.0      0    -9.00      0.0      0.0      0.0   100    13.3     2.649    85.0    2.252   -9.900      68        1.28    0.000    0.000     186.8    155.0    1.00   155.0     417.9     152.4     108.2      80.6      42.5      41.7    0.000     0.000     0.000     0.000     0.000    1.00     0.00    0.00      0   -9.90   -9.00       16.3       16.3       16.0       16.2       16.1       16.0       16.0       16.0       15.9       15.9       15.9       15.9        0.0        0.0        0.0        0.0        0.0        0.0        0.0        0.0        0.0        0.0        0.0        0.0      0.0       0.0      -4.7      -2.1       0.6    404.41
    14    12  2016    -9     0     185.0     0.0      0.0    0.0    0.0    0.0      1.7      0.0   -9.90      0.1      0.1    100      0.0      0.0   100      0.1     0.1     100      0.0    1.00     -9     -9     -9      0     -9     0.0     0.0      0    -9.00      0.0      0.0      0.0   100    13.3     2.649    85.0    2.252   -9.900      68        1.28    0.000    0.000     185.0    153.3    1.00   153.3     417.9     152.4     108.2      81.0      42.5      41.7    0.000     0.000     0.000     0.000     0.000    1.00     0.00    0.00      0   -9.90   -9.00       15.8       15.9       15.9       15.9       15.9       15.9       15.9       15.9       15.9       15.9       15.9       15.9        0.0        0.0        0.0        0.0        0.0        0.0        0.0        0.0        0.0        0.0        0.0        0.0      0.0       0.1      -7.6      -6.4      -5.2    404.41
    15    12  2016    -9     0     184.3     0.0      0.0    0.0    0.0    0.0      0.7      0.0   -9.90      0.1      0.1    100      0.0      0.0   100      0.1     0.1     100      0.0    1.00     -9     -9     -9      0     -9     0.0     0.0      0    -9.00      0.0      0.0      0.0   100    13.3     2.649    85.0    2.252   -9.900      68        1.28    0.000    0.000     184.3    152.6    1.00   152.6     417.9     152.4     108.2      81.0      42.5      41.7    0.000     0.000     0.000     0.000     0.000    1.00     0.00    0.00      0   -9.90   -9.00       15.7       15.8       15.8       15.8       15.8       15.8       15.8       15.8       15.8       15.8       15.8       15.8        0.0        0.0        0.0        0.0        0.0        0.0        0.0        0.0        0.0        0.0        0.0        0.0      0.0       0.1      -5.4      -2.6       0.2    404.41
    16    12  2016    -9     0     184.1     0.0      0.0    0.0    0.0    0.0      0.2      0.0   -9.90      0.0      0.0    100      0.0      0.0   100      0.0     0.0     100      0.0    1.00     -9     -9     -9      0     -9     0.0     0.0      0    -9.00      0.0      0.0      0.0   100    13.3     2.649    85.0    2.252   -9.900      68        1.28    0.000    0.000     184.1    152.4    1.00   152.4     417.9     152.4     108.2      80.6      42.5      41.7    0.000     0.000     0.000     0.000     0.000    1.00     0.00    0.00      0   -9.90   -9.00       15.7       15.8       15.8       15.8       15.8       15.8       15.8       15.8       15.8       15.8       15.8       15.8        0.0        0.0        0.0        0.0        0.0        0.0        0.0        0.0        0.0        0.0        0.0        0.0      0.0       0.0      -1.7      -0.7       0.3    404.41
    17    12  2016    -9     0     190.7     6.8      0.0    0.0    6.8    0.0      0.1      0.0   -9.90      0.1      0.1    100      0.0      0.0   100      0.1     0.1     100      0.0    1.00     -9     -9     -9      0     -9     0.0     0.0      0    -9.00      0.0      0.0      0.0   100    13.3     2.649    85.0    2.252   -9.900      68        1.28    0.000    0.000     190.7    159.1    1.00   159.1     417.9     152.4     108.2      81.0      42.5      41.7    0.000     0.000     0.000     0.000     0.000    1.00     0.00    0.00      0   -9.90   -9.00       23.3       15.8       15.8       15.8       15.8       15.8       15.8       15.8       15.8       15.8       15.8       15.8        0.0        0.0        0.0        0.0        0.0        0.0        0.0        0.0        0.0        0.0        0.0        0.0      6.8       0.1      -1.2      -0.1       1.0    404.41
    18    12  2016    -9     0     188.3     0.0      0.0    0.0    0.0    0.0      2.3      0.0   -9.90      0.1      0.1    100      0.0      0.0   100      0.1     0.1     100      0.0    1.00     -9     -9     -9      0     -9     0.0     0.0      0    -9.00      0.0      0.0      0.0   100    13.3     2.649    85.0    2.252   -9.900      68        1.28    0.000    0.000     188.3    156.5    1.00   156.5     417.9     152.4     108.2      81.3      42.5      41.7    0.000     0.000     0.000     0.000     0.000    1.00     0.00    0.00      0   -9.90   -9.00       16.6       16.6       16.3       16.5       16.2       16.1       16.0       16.0       16.0       15.9       15.9       15.9        0.0        0.0        0.0        0.0        0.0        0.0        0.0        0.0        0.0        0.0        0.0        0.0      0.0       0.2      -3.2      -1.1       1.1    404.41
    19    12  2016    -9     0     185.8     0.0      0.0    0.0    0.0    0.0      2.5      0.0   -9.90      0.0      0.0    100      0.0      0.0   100      0.0     0.0     100      0.0    1.00     -9     -9     -9      0     -9     0.0     0.0      0    -9.00      0.0      0.0      0.0   100    13.3     2.649    85.0    2.252   -9.900      68        1.28    0.000    0.000     185.8    154.0    1.00   154.0     417.9     152.4     108.2      80.6      42.5      41.7    0.000     0.000     0.000     0.000     0.000    1.00     0.00    0.00      0   -9.90   -9.00       15.9       15.9       15.9       16.0       16.0       16.0       16.0       16.0       15.9       15.9       15.9       15.9        0.0        0.0        0.0        0.0        0.0        0.0        0.0        0.0        0.0        0.0        0.0        0.0      0.0       0.0       1.6       2.7       3.7    404.41
    20    12  2016    -9     0     184.4     0.0      0.0    0.0    0.0    0.0      1.2      0.0   -9.90      0.2      0.2    100      0.0      0.0   100      0.2     0.2     100      0.0    1.00     -9     -9     -9      0     -9     0.0     0.0      0    -9.00      0.0      0.0      0.0   100    13.3     2.649    85.0    2.252   -9.900      68        1.28    0.000    0.000     184.4    152.7    1.00   152.7     417.9     152.4     108.2      81.6      42.5      41.7    0.000     0.000     0.000     0.000     0.000    1.00     0.00    0.00      0   -9.90   -9.00       15.6       15.8       15.8       15.9       15.9       15.9       15.9       15.9       15.9       15.9       15.9       15.8        0.0        0.0        0.0        0.0        0.0        0.0        0.0        0.0        0.0        0.0        0.0        0.0      0.0       0.3       0.0       1.1       2.3    404.41
    21    12  2016    -9     0     197.5    14.4      0.0    0.0   13.8    0.6      0.4      0.0   -9.90      0.3      0.3    100      0.0      0.0   100      0.3     0.3     100      0.0    1.00     -9     -9     -9      0     -9     0.0     0.0      0    -9.00      0.0      0.0      0.0   100    13.3     2.649    85.0    2.252   -9.900      68        1.28    0.000    0.000     197.5    165.9    1.00   165.9     417.9     152.4     108.2      81.9      42.5      41.7    0.000     0.000     0.000     0.000     0.000    1.00     0.00    0.00      0   -9.90   -9.00       30.9       15.8       15.8       15.8       15.8       15.8       15.8       15.8       15.8       15.8       15.8       15.8        0.0        0.0        0.0        0.0        0.0        0.0        0.0        0.0        0.0        0.0        0.0        0.0     14.4       0.4      -1.1      -0.2       0.7    404.41
    22    12  2016    -9     0     210.8    20.7      0.0    0.0   18.8    1.9      5.3      0.0   -9.90      0.3      0.3    100      0.0      0.0   100      0.3     0.3     100      0.0    1.00     -9     -9     -9      0     -9     0.0     0.0      0    -9.00      0.0      0.0      0.0   100    13.3     2.649    85.0    2.252   -9.900      68        1.28    0.000    0.000     210.8    178.7    1.00   178.7     417.9     152.4     108.2      81.9      42.5      41.7    0.000     0.000     0.000     0.000     0.000    1.00     0.00    0.00      0   -9.90   -9.00       38.1       17.1       16.7       17.2       16.8       16.5       16.3       16.2       16.2       16.1       16.1       16.0        0.0        0.0        0.0        0.0        0.0        0.0        0.0        0.0        0.0        0.0        0.0        0.0     20.7       0.4      -2.0      -1.0      -0.0    404.41
    23    12  2016    -9     0     217.9    22.8      0.0    0.0   20.4    2.4     13.3      0.0   -9.90      0.1      0.1    100      0.0      0.0   100      0.1     0.1     100      0.0    1.00     -9     -9     -9      0     -9     0.0     0.0      0    -9.00      0.0      0.0      0.0   100    13.3     2.649    85.0    2.252   -9.900      68        1.28    0.000    0.000     217.9    185.1    1.00   185.1     417.9     152.4     108.2      81.0      42.5      41.7    0.000     0.000     0.000     0.000     0.000    1.00     0.00    0.00      0   -9.90   -9.00       40.0       17.0       17.0       18.2       17.6       17.2       16.9       16.7       16.6       16.5       16.4       16.3        0.0        0.0        0.0        0.0        0.0        0.0        0.0        0.0        0.0        0.0        0.0        0.0     22.8       0.1      -2.8      -0.9       0.9    404.41
    24    12  2016    -9     0     219.3    22.1      0.0    0.0   19.9    2.2     18.3      0.0   -9.90      0.2      0.2    100      0.0      0.0   100      0.2     0.2     100      0.0    1.00     -9     -9     -9      0     -9     0.0     0.0      0    -9.00      0.0      0.0      0.0   100    13.3     2.649    85.0    2.252   -9.900      68        1.28    0.000    0.000     219.3    186.1    1.00   186.1     417.9     152.4     108.2      81.6      42.5      41.7    0.000     0.000     0.000     0.000     0.000    1.00     0.00    0.00      0   -9.90   -9.00       39.2       16.9       17.1       18.5       17.9       17.5       17.2       17.0       16.8       16.7       16.6       16.5        0.0        0.0        0.0        0.0        0.0        0.0        0.0        0.0        0.0        0.0        0.0        0.0     22.1       0.3      -2.8      -1.3       0.1    404.41
    25    12  2016    -9     0     219.2    21.9      0.0    0.0   19.7    2.2     19.6      0.0   -9.90      0.2      0.2    100      0.0      0.0   100      0.2     0.2     100      0.0    1.00     -9     -9     -9      0     -9     0.0     0.0      0    -9.00      0.0      0.0      0.0   100    13.3     2.649    85.0    2.252   -9.900      68        1.28    0.000    0.000     219.2    186.0    1.00   186.0     417.9     152.4     108.2      81.6      42.5      41.7    0.000     0.000     0.000     0.000     0.000    1.00     0.00    0.00      0   -9.90   -9.00       39.1       17.0       17.1       18.4       17.8       17.4       17.2       17.0       16.9       16.8       16.7       16.6        0.0        0.0        0.0        0.0        0.0        0.0        0.0        0.0        0.0        0.0        0.0        0.0     21.9       0.3      -1.9       1.1       4.1    404.41
    26    12  2016    -9     0     221.2    24.9      0.0    0.0   21.9    3.0     19.8      0.0   -9.90      0.2      0.2    100      0.0      0.0   100      0.2     0.2     100      0.0    1.00     -9     -9     -9      0     -9     0.0     0.0      0    -9.00      0.0      0.0      0.0   100    13.3     2.649    85.0    2.252   -9.900      68        1.28    0.000    0.000     221.2    187.9    1.00   187.9     417.9     152.4     108.2      81.6      42.5      41.7    0.000     0.000     0.000     0.000     0.000    1.00     0.00    0.00      0   -9.90   -9.00       41.4       17.0       17.1       18.4       17.8       17.4       17.2       17.0       16.9       16.7       16.7       16.6        0.0        0.0        0.0        0.0        0.0        0.0        0.0        0.0        0.0        0.0        0.0        0.0     24.9       0.3      -3.3      -1.3       0.6    404.41
    27    12  2016    -9     0     200.3     0.0      0.0    0.0    0.0    0.0     20.8      0.0   -9.90      0.1      0.1    100      0.0      0.0   100      0.1     0.1     100      0.0    1.00     -9     -9     -9      0     -9     0.0     0.0      0    -9.00      0.0      0.0      0.0   100    13.3     2.649    85.0    2.252   -9.900      68        1.28    0.000    0.000     200.3    166.9    1.00   166.9     417.9     152.4     108.2      81.0      42.5      41.7    0.000     0.000     0.000     0.000     0.000    1.00     0.00    0.00      0   -9.90   -9.00       16.7       16.8       17.1       18.6       18.0       17.6       17.3       17.1       16.9       16.8       16.7       16.6        0.0        0.0        0.0        0.0        0.0        0.0        0.0        0.0        0.0        0.0        0.0        0.0      0.0       0.1      -2.8      -1.5      -0.2    404.41
    28    12  2016    -9     0     189.4     0.0      0.0    0.0    0.0    0.0     10.9      0.0   -9.90      0.0      0.0    100      0.0      0.0   100      0.0     0.0     100      0.0    1.00     -9     -9     -9      0     -9     0.0     0.0      0    -9.00      0.0      0.0      0.0   100    13.3     2.649    85.0    2.252   -9.900      68        1.28    0.000    0.000     189.4    156.9    1.00   156.9     417.9     152.4     108.2      80.6      42.5      41.7    0.000     0.000     0.000     0.000     0.000    1.00     0.00    0.00      0   -9.90   -9.00       15.9       15.9       16.0       16.7       16.5       16.3       16.3       16.3       16.3       16.3       16.2       16.2        0.0        0.0        0.0        0.0        0.0        0.0        0.0        0.0        0.0        0.0        0.0        0.0      0.0       0.0      -1.6      -0.7       0.3    404.41
    29    12  2016    -9     0     188.7     3.2      0.0    0.0    3.2    0.0      3.8      0.0   -9.90      0.1      0.1    100      0.0      0.0   100      0.1     0.1     100      0.0    1.00     -9     -9     -9      0     -9     0.0     0.0      0    -9.00      0.0      0.0      0.0   100    13.3     2.649    85.0    2.252   -9.900      68        1.28    0.000    0.000     188.7    156.8    1.00   156.8     417.9     152.4     108.2      81.3      42.5      41.7    0.000     0.000     0.000     0.000     0.000    1.00     0.00    0.00      0   -9.90   -9.00       19.3       15.8       15.8       16.1       16.0       16.0       16.0       16.0       16.0       15.9       15.9       15.9        0.0        0.0        0.0        0.0        0.0        0.0        0.0        0.0        0.0        0.0        0.0        0.0      3.2       0.2       0.8       1.2       1.7    404.41
    30    12  2016    -9     0     209.4    26.6      0.0    0.0   23.2    3.4      2.2      0.0   -9.90      0.3      0.3    100      0.0      0.0   100      0.3     0.3     100      0.0    1.00     -9     -9     -9      0     -9     0.0     0.0      0    -9.00      0.0      0.0      0.0   100    13.3     2.649    85.0    2.252   -9.900      68        1.28    0.000    0.000     209.4    177.6    1.00   177.6     417.9     152.4     108.2      81.9      42.5      41.7    0.000     0.000     0.000     0.000     0.000    1.00     0.00    0.00      0   -9.90   -9.00       42.3       16.2       16.0       16.1       16.0       16.0       16.0       15.9       15.9       15.9       15.9       15.9        0.0        0.0        0.0        0.0        0.0        0.0        0.0        0.0        0.0        0.0        0.0        0.0     26.6       0.4       2.0       3.1       4.2    404.41
    31    12  2016    -9     0     219.5    25.3      0.0    0.0   22.2    3.1     11.9      0.0   -9.90      0.2      0.2    100      0.0      0.0   100      0.2     0.2     100      0.0    1.00     -9     -9     -9      0     -9     0.0     0.0      0    -9.00      0.0      0.0      0.0   100    13.3     2.649    85.0    2.252   -9.900      68        1.28    0.000    0.000     219.5    186.8    1.00   186.8     417.9     152.4     108.2      81.6      42.5      41.7    0.000     0.000     0.000     0.000     0.000    1.00     0.00    0.00      0   -9.90   -9.00       41.7       16.8       17.1       18.5       17.7       17.2       16.9       16.7       16.6       16.5       16.4       16.3        0.0        0.0        0.0        0.0        0.0        0.0        0.0        0.0        0.0        0.0        0.0        0.0     25.3       0.3      -0.9       1.8       4.4    404.41
