AquaCrop 7.1 (August 2023) - Output created on (date) : 19-08-2023   at (time) : 13:48:26

    RunNr     Day1   Month1    Year1     Rain      ETo       GD     CO2      Irri   Infilt   Runoff    Drain   Upflow        E     E/Ex       Tr      TrW   Tr/Trx    SaltIn   SaltOut    SaltUp  SaltProf     Cycle   SaltStr  FertStr  WeedStr  TempStr   ExpStr   StoStr  BioMass  Brelative   HI    Y(dry)  Y(fresh)    WPet      Bin     Bout     DayN   MonthN    YearN
                                           mm       mm  degC.day    ppm        mm       mm       mm       mm       mm       mm        %       mm       mm        %    ton/ha    ton/ha    ton/ha    ton/ha      days       %        %        %        %        %        %    ton/ha        %       %    ton/ha   ton/ha    kg/m3   ton/ha   ton/ha
   Tot(1)        1        1     2011   3225.8    385.1    431.2   391.85      0.0   2888.2    337.6   2669.6      0.0    158.3       82     50.7     50.7      100     0.000     0.000     0.000     0.000      267        0       30        0       88        0        0     3.598       67     85.0    3.058   -9.900     1.62    0.000    0.000       31       12     2011  1_0.PRM
   Tot(2)        1        1     2012   2735.0    403.5    350.4   394.06      0.0   2473.5    261.5   2204.2      0.0    180.3       85     46.9     46.9      100     0.000     0.000     0.000     0.000      267        0       30        0       89        0        0     3.203       67     85.0    2.722   -9.900     1.30    0.000    0.000       31       12     2012  1_0.PRM
   Tot(3)        1        1     2013   2444.3    407.7    464.8   396.74      0.0   2217.0    227.3   1992.7      0.0    173.3       90     71.1     71.1      100     0.000     0.000     0.000     0.000      267        0       30        0       85        0        0     4.437       67     85.0    3.771   -9.900     1.68    0.000    0.000       31       12     2013  1_0.PRM
   Tot(4)        1        1     2014   2587.8    473.6    564.6   398.81      0.0   2304.1    283.7   2044.5      0.0    188.6       85     95.6     95.6      100     0.000     0.000     0.000     0.000      267        0       30        0       82        0        0     5.441       71     85.0    4.625   -9.900     1.79    0.000    0.000       31       12     2014  1_0.PRM
   Tot(5)        1        1     2015   3369.6    409.3    350.3   401.01      0.0   2985.3    384.3   2705.1      0.0    219.8       93     54.6     54.6      100     0.000     0.000     0.000     0.000      267        0       30        0       89        0        0     3.238       71     85.0    2.752   -9.900     1.10    0.000    0.000       31       12     2015  1_0.PRM
   Tot(6)        1        1     2016   2201.2    406.5    461.4   404.41      0.0   2021.1    180.1   1762.7      0.0    168.9       82     61.5     61.5      100     0.000     0.000     0.000     0.000      267        0       30        0       86        0        0     4.205       71     85.0    3.574   -9.900     1.72    0.000    0.000       31       12     2016  1_0.PRM
